Skipping setup_environment - already set
doing: export -n PTX_SIM_USE_PTX_FILE
doing: export LD_LIBRARY_PATH=/p/confidentialgpu/sim_run_11.8/gpgpu-sim-builds/gpgpu-sim_git-commit-86b30a5ada0d3c0446ed64d4b09d4a4ef08c5ee3_modified_2.0:/p/confidentialgpu/simulator/lib/gcc-/cuda-11080/debug:/p/confidentialgpu/simulator/lib/gcc-/cuda-11080/debug:/u/xqg5sq/Documents/deps/cuda/lib:/u/xqg5sq/Documents/deps/cuda/lib64:
doing: cd /p/confidentialgpu/sim_run_11.8/uvm-2dconv/NO_ARGS/A100
doing: export OPENCL_CURRENT_TEST_PATH=/p/confidentialgpu/sim_run_11.8/uvm-2dconv/NO_ARGS/A100
doing: export OPENCL_REMOTE_GPU_HOST=REPLACE_REMOTE_HOST
doing 
doing: export PATH=/p/confidentialgpu/simulator/bin:/u/xqg5sq/Documents/deps/cuda/bin:/u/xqg5sq/Documents/deps/kcapi/bin:/u/xqg5sq/Documents/deps/cuda/bin:/sw/ubuntu-22.04/anaconda3/2022.05/condabin:/u/xqg5sq/Documents/deps/kcapi/bin:/u/xqg5sq/Documents/deps/cuda/bin:/sw/ubuntu-22.04/modules/5.0.1/bin:/usr/local/sbin:/usr/local/bin:/usr/sbin:/usr/bin:/sbin:/bin:/usr/games:/usr/local/games:/snap/bin:/opt/puppetlabs/bin:/u/xqg5sq/bin:/u/xqg5sq/bin
doing export CUDA_LAUNCH_BLOCKING=1
doing:  /u/xqg5sq/insight-lab/salus/gpu-app-collection/src/..//bin/11.8/release2/uvm-2dconv 


        *** GPGPU-Sim Simulator Version 4.2.0  [build gpgpu-sim_git-commit-86b30a5ada0d3c0446ed64d4b09d4a4ef08c5ee3_modified_2.0] ***


GPGPU-Sim PTX: simulation mode 0 (can change with PTX_SIM_MODE_FUNC environment variable:
               1=functional simulation only, 0=detailed performance simulator)
GPGPU-Sim: Configuration options:

-save_embedded_ptx                      0 # saves ptx files embedded in binary as <n>.ptx
-keep                                   0 # keep intermediate files created by GPGPU-Sim when interfacing with external programs
-gpgpu_ptx_save_converted_ptxplus                    0 # Saved converted ptxplus to a file
-gpgpu_occupancy_sm_number                   86 # The SM number to pass to ptxas when getting register usage for computing GPU occupancy. This parameter is required in the config.
-ptx_opcode_latency_int      4,13,4,5,145,21 # Opcode latencies for integers <ADD,MAX,MUL,MAD,DIV,SHFL>Default 1,1,19,25,145,32
-ptx_opcode_latency_fp          4,13,4,5,39 # Opcode latencies for single precision floating points <ADD,MAX,MUL,MAD,DIV>Default 1,1,1,1,30
-ptx_opcode_latency_dp         8,19,8,8,330 # Opcode latencies for double precision floating points <ADD,MAX,MUL,MAD,DIV>Default 8,8,8,8,335
-ptx_opcode_latency_sfu                  100 # Opcode latencies for SFU instructionsDefault 8
-ptx_opcode_latency_tesnor                   64 # Opcode latencies for Tensor instructionsDefault 64
-ptx_opcode_initiation_int          2,2,2,2,8,4 # Opcode initiation intervals for integers <ADD,MAX,MUL,MAD,DIV,SHFL>Default 1,1,4,4,32,4
-ptx_opcode_initiation_fp            2,2,2,2,4 # Opcode initiation intervals for single precision floating points <ADD,MAX,MUL,MAD,DIV>Default 1,1,1,1,5
-ptx_opcode_initiation_dp          4,4,4,4,130 # Opcode initiation intervals for double precision floating points <ADD,MAX,MUL,MAD,DIV>Default 8,8,8,8,130
-ptx_opcode_initiation_sfu                    8 # Opcode initiation intervals for sfu instructionsDefault 8
-ptx_opcode_initiation_tensor                   64 # Opcode initiation intervals for tensor instructionsDefault 64
-cdp_latency         7200,8000,100,12000,1600 # CDP API latency <cudaStreamCreateWithFlags, cudaGetParameterBufferV2_init_perWarp, cudaGetParameterBufferV2_perKernel, cudaLaunchDeviceV2_init_perWarp, cudaLaunchDevicV2_perKernel>Default 7200,8000,100,12000,1600
-network_mode                           2 # Interconnection network mode
-inter_config_file                   mesh # Interconnection network config file
-icnt_in_buffer_limit                  512 # in_buffer_limit
-icnt_out_buffer_limit                  512 # out_buffer_limit
-icnt_subnets                           2 # subnets
-icnt_arbiter_algo                      1 # arbiter_algo
-icnt_verbose                           0 # inct_verbose
-icnt_grant_cycles                      1 # grant_cycles
-gpgpu_ptx_use_cuobjdump                    1 # Use cuobjdump to extract ptx and sass from binaries
-gpgpu_experimental_lib_support                    0 # Try to extract code from cuda libraries [Broken because of unknown cudaGetExportTable]
-checkpoint_option                      0 #  checkpointing flag (0 = no checkpoint)
-checkpoint_kernel                      1 #  checkpointing during execution of which kernel (1- 1st kernel)
-checkpoint_CTA                         0 #  checkpointing after # of CTA (< less than total CTA)
-resume_option                          0 #  resume flag (0 = no resume)
-resume_kernel                          0 #  Resume from which kernel (1= 1st kernel)
-resume_CTA                             0 #  resume from which CTA 
-checkpoint_CTA_t                       0 #  resume from which CTA 
-checkpoint_insn_Y                      0 #  resume from which CTA 
-gpgpu_ptx_convert_to_ptxplus                    0 # Convert SASS (native ISA) to ptxplus and run ptxplus
-gpgpu_ptx_force_max_capability                   86 # Force maximum compute capability
-gpgpu_ptx_inst_debug_to_file                    0 # Dump executed instructions' debug information to file
-gpgpu_ptx_inst_debug_file       inst_debug.txt # Executed instructions' debug output file
-gpgpu_ptx_inst_debug_thread_uid                    1 # Thread UID for executed instructions' debug output
-gpgpu_simd_model                       1 # 1 = post-dominator
-gpgpu_shader_core_pipeline              2048:32 # shader core pipeline config, i.e., {<nthread>:<warpsize>}
-gpgpu_tex_cache:l1  N:4:128:256,L:R:m:N:L,T:512:8,128:2 # per-shader L1 texture cache  (READ-ONLY) config  {<nsets>:<bsize>:<assoc>,<rep>:<wr>:<alloc>:<wr_alloc>,<mshr>:<N>:<merge>,<mq>:<rf>}
-gpgpu_const_cache:l1 N:128:64:8,L:R:f:N:L,S:2:64,4 # per-shader L1 constant memory cache  (READ-ONLY) config  {<nsets>:<bsize>:<assoc>,<rep>:<wr>:<alloc>:<wr_alloc>,<mshr>:<N>:<merge>,<mq>} 
-gpgpu_cache:il1     N:64:128:16,L:R:f:N:L,S:2:48,4 # shader L1 instruction cache config  {<nsets>:<bsize>:<assoc>,<rep>:<wr>:<alloc>:<wr_alloc>,<mshr>:<N>:<merge>,<mq>} 
-gpgpu_cache:dl1     S:4:128:128,L:T:m:L:L,A:384:48,16:0,32 # per-shader L1 data cache config  {<nsets>:<bsize>:<assoc>,<rep>:<wr>:<alloc>:<wr_alloc>,<mshr>:<N>:<merge>,<mq> | none}
-gpgpu_l1_cache_write_ratio                   25 # L1D write ratio
-gpgpu_l1_banks                         4 # The number of L1 cache banks
-gpgpu_l1_banks_byte_interleaving                   32 # l1 banks byte interleaving granularity
-gpgpu_l1_banks_hashing_function                    0 # l1 banks hashing function
-gpgpu_l1_latency                      15 # L1 Hit Latency
-gpgpu_smem_latency                    20 # smem Latency
-gpgpu_cache:dl1PrefL1                 none # per-shader L1 data cache config  {<nsets>:<bsize>:<assoc>,<rep>:<wr>:<alloc>:<wr_alloc>,<mshr>:<N>:<merge>,<mq> | none}
-gpgpu_cache:dl1PrefShared                 none # per-shader L1 data cache config  {<nsets>:<bsize>:<assoc>,<rep>:<wr>:<alloc>:<wr_alloc>,<mshr>:<N>:<merge>,<mq> | none}
-gpgpu_gmem_skip_L1D                    0 # global memory access skip L1D cache (implements -Xptxas -dlcm=cg, default=no skip)
-gpgpu_perfect_mem                      0 # enable perfect memory mode (no cache miss)
-n_regfile_gating_group                    4 # group of lanes that should be read/written together)
-gpgpu_clock_gated_reg_file                    0 # enable clock gated reg file for power calculations
-gpgpu_clock_gated_lanes                    0 # enable clock gated lanes for power calculations
-gpgpu_shader_registers                65536 # Number of registers per shader core. Limits number of concurrent CTAs. (default 8192)
-gpgpu_registers_per_block                65536 # Maximum number of registers per CTA. (default 8192)
-gpgpu_ignore_resources_limitation                    0 # gpgpu_ignore_resources_limitation (default 0)
-gpgpu_shader_cta                      32 # Maximum number of concurrent CTAs in shader (default 8)
-gpgpu_num_cta_barriers                   16 # Maximum number of named barriers per CTA (default 16)
-gpgpu_n_clusters                      80 # number of processing clusters
-gpgpu_n_cores_per_cluster                    1 # number of simd cores per cluster
-gpgpu_n_cluster_ejection_buffer_size                   32 # number of packets in ejection buffer
-gpgpu_n_ldst_response_buffer_size                    2 # number of response packets in ld/st unit ejection buffer
-gpgpu_shmem_per_block                65536 # Size of shared memory per thread block or CTA (default 48kB)
-gpgpu_shmem_size                  131072 # Size of shared memory per shader core (default 16kB)
-gpgpu_shmem_option       0,8,16,32,64,96 # Option list of shared memory sizes
-gpgpu_unified_l1d_size                  192 # Size of unified data cache(L1D + shared memory) in KB
-gpgpu_adaptive_cache_config                    1 # adaptive_cache_config
-gpgpu_shmem_sizeDefault               131072 # Size of shared memory per shader core (default 16kB)
-gpgpu_shmem_size_PrefL1                16384 # Size of shared memory per shader core (default 16kB)
-gpgpu_shmem_size_PrefShared                16384 # Size of shared memory per shader core (default 16kB)
-gpgpu_shmem_num_banks                   32 # Number of banks in the shared memory in each shader core (default 16)
-gpgpu_shmem_limited_broadcast                    0 # Limit shared memory to do one broadcast per cycle (default on)
-gpgpu_shmem_warp_parts                    1 # Number of portions a warp is divided into for shared memory bank conflict check 
-gpgpu_mem_unit_ports                    1 # The number of memory transactions allowed per core cycle
-gpgpu_shmem_warp_parts                    1 # Number of portions a warp is divided into for shared memory bank conflict check 
-gpgpu_warpdistro_shader                   -1 # Specify which shader core to collect the warp size distribution from
-gpgpu_warp_issue_shader                    0 # Specify which shader core to collect the warp issue distribution from
-gpgpu_local_mem_map                    1 # Mapping from local memory space address to simulated GPU physical address space (default = enabled)
-gpgpu_num_reg_banks                   16 # Number of register banks (default = 8)
-gpgpu_reg_bank_use_warp_id                    0 # Use warp ID in mapping registers to banks (default = off)
-gpgpu_sub_core_model                    1 # Sub Core Volta/Pascal model (default = off)
-gpgpu_enable_specialized_operand_collector                    0 # enable_specialized_operand_collector
-gpgpu_operand_collector_num_units_sp                    4 # number of collector units (default = 4)
-gpgpu_operand_collector_num_units_dp                    0 # number of collector units (default = 0)
-gpgpu_operand_collector_num_units_sfu                    4 # number of collector units (default = 4)
-gpgpu_operand_collector_num_units_int                    0 # number of collector units (default = 0)
-gpgpu_operand_collector_num_units_tensor_core                    4 # number of collector units (default = 4)
-gpgpu_operand_collector_num_units_mem                    2 # number of collector units (default = 2)
-gpgpu_operand_collector_num_units_gen                    8 # number of collector units (default = 0)
-gpgpu_operand_collector_num_in_ports_sp                    1 # number of collector unit in ports (default = 1)
-gpgpu_operand_collector_num_in_ports_dp                    0 # number of collector unit in ports (default = 0)
-gpgpu_operand_collector_num_in_ports_sfu                    1 # number of collector unit in ports (default = 1)
-gpgpu_operand_collector_num_in_ports_int                    0 # number of collector unit in ports (default = 0)
-gpgpu_operand_collector_num_in_ports_tensor_core                    1 # number of collector unit in ports (default = 1)
-gpgpu_operand_collector_num_in_ports_mem                    1 # number of collector unit in ports (default = 1)
-gpgpu_operand_collector_num_in_ports_gen                    8 # number of collector unit in ports (default = 0)
-gpgpu_operand_collector_num_out_ports_sp                    1 # number of collector unit in ports (default = 1)
-gpgpu_operand_collector_num_out_ports_dp                    0 # number of collector unit in ports (default = 0)
-gpgpu_operand_collector_num_out_ports_sfu                    1 # number of collector unit in ports (default = 1)
-gpgpu_operand_collector_num_out_ports_int                    0 # number of collector unit in ports (default = 0)
-gpgpu_operand_collector_num_out_ports_tensor_core                    1 # number of collector unit in ports (default = 1)
-gpgpu_operand_collector_num_out_ports_mem                    1 # number of collector unit in ports (default = 1)
-gpgpu_operand_collector_num_out_ports_gen                    8 # number of collector unit in ports (default = 0)
-gpgpu_coalesce_arch                   86 # Coalescing arch (GT200 = 13, Fermi = 20)
-gpgpu_num_sched_per_core                    4 # Number of warp schedulers per core
-gpgpu_max_insn_issue_per_warp                    1 # Max number of instructions that can be issued per warp in one cycle by scheduler (either 1 or 2)
-gpgpu_dual_issue_diff_exec_units                    1 # should dual issue use two different execution unit resources (Default = 1)
-gpgpu_simt_core_sim_order                    1 # Select the simulation order of cores in a cluster (0=Fix, 1=Round-Robin)
-gpgpu_pipeline_widths 4,4,4,4,4,4,4,4,4,4,8,4,4 # Pipeline widths ID_OC_SP,ID_OC_DP,ID_OC_INT,ID_OC_SFU,ID_OC_MEM,OC_EX_SP,OC_EX_DP,OC_EX_INT,OC_EX_SFU,OC_EX_MEM,EX_WB,ID_OC_TENSOR_CORE,OC_EX_TENSOR_CORE
-gpgpu_tensor_core_avail                    1 # Tensor Core Available (default=0)
-gpgpu_num_sp_units                     4 # Number of SP units (default=1)
-gpgpu_num_dp_units                     4 # Number of DP units (default=0)
-gpgpu_num_int_units                    4 # Number of INT units (default=0)
-gpgpu_num_sfu_units                    4 # Number of SF units (default=1)
-gpgpu_num_tensor_core_units                    4 # Number of tensor_core units (default=1)
-gpgpu_num_mem_units                    1 # Number if ldst units (default=1) WARNING: not hooked up to anything
-gpgpu_scheduler                      gto # Scheduler configuration: < lrr | gto | two_level_active > If two_level_active:<num_active_warps>:<inner_prioritization>:<outer_prioritization>For complete list of prioritization values see shader.h enum scheduler_prioritization_typeDefault: gto
-gpgpu_concurrent_kernel_sm                    0 # Support concurrent kernels on a SM (default = disabled)
-gpgpu_perfect_inst_const_cache                    1 # perfect inst and const cache mode, so all inst and const hits in the cache(default = disabled)
-gpgpu_inst_fetch_throughput                    4 # the number of fetched intruction per warp each cycle
-gpgpu_reg_file_port_throughput                    2 # the number ports of the register file
-tlb_size                            4096 # Number of tlb entries per SM.
-specialized_unit_1         0,4,4,4,4,BRA # specialized unit config {<enabled>,<num_units>:<latency>:<initiation>,<ID_OC_SPEC>:<OC_EX_SPEC>,<NAME>}
-specialized_unit_2         0,4,4,4,4,BRA # specialized unit config {<enabled>,<num_units>:<latency>:<initiation>,<ID_OC_SPEC>:<OC_EX_SPEC>,<NAME>}
-specialized_unit_3         0,4,4,4,4,BRA # specialized unit config {<enabled>,<num_units>:<latency>:<initiation>,<ID_OC_SPEC>:<OC_EX_SPEC>,<NAME>}
-specialized_unit_4         0,4,4,4,4,BRA # specialized unit config {<enabled>,<num_units>:<latency>:<initiation>,<ID_OC_SPEC>:<OC_EX_SPEC>,<NAME>}
-specialized_unit_5         0,4,4,4,4,BRA # specialized unit config {<enabled>,<num_units>:<latency>:<initiation>,<ID_OC_SPEC>:<OC_EX_SPEC>,<NAME>}
-specialized_unit_6         0,4,4,4,4,BRA # specialized unit config {<enabled>,<num_units>:<latency>:<initiation>,<ID_OC_SPEC>:<OC_EX_SPEC>,<NAME>}
-specialized_unit_7         0,4,4,4,4,BRA # specialized unit config {<enabled>,<num_units>:<latency>:<initiation>,<ID_OC_SPEC>:<OC_EX_SPEC>,<NAME>}
-specialized_unit_8         0,4,4,4,4,BRA # specialized unit config {<enabled>,<num_units>:<latency>:<initiation>,<ID_OC_SPEC>:<OC_EX_SPEC>,<NAME>}
-gpgpu_perf_sim_memcpy                    1 # Fill the L2 cache on memcpy
-gpgpu_simple_dram_model                    0 # simple_dram_model with fixed latency and BW
-gpgpu_dram_scheduler                    1 # 0 = fifo, 1 = FR-FCFS (defaul)
-gpgpu_dram_partition_queues          64:64:64:64 # i2$:$2d:d2$:$2i
-l2_ideal                               0 # Use a ideal L2 cache that always hit
-gpgpu_cache:dl2     S:64:128:24,L:B:m:L:P,A:192:4,32:0,32 # unified banked L2 data cache config  {<nsets>:<bsize>:<assoc>,<rep>:<wr>:<alloc>:<wr_alloc>,<mshr>:<N>:<merge>,<mq>}
-gpgpu_cache:dl2_texture_only                    0 # L2 cache used for texture only
-gpgpu_n_mem                           32 # number of memory modules (e.g. memory controllers) in gpu
-gpgpu_n_sub_partition_per_mchannel                    2 # number of memory subpartition in each memory module
-gpgpu_n_mem_per_ctrlr                    1 # number of memory chips per memory controller
-gpgpu_memlatency_stat                   14 # track and display latency statistics 0x2 enables MC, 0x4 enables queue logs
-gpgpu_frfcfs_dram_sched_queue_size                  128 # 0 = unlimited (default); # entries per chip
-gpgpu_dram_return_queue_size                  192 # 0 = unlimited (default); # entries per chip
-gpgpu_dram_buswidth                   16 # default = 4 bytes (8 bytes per cycle at DDR)
-gpgpu_dram_burst_length                    2 # Burst length of each DRAM request (default = 4 data bus cycle)
-dram_data_command_freq_ratio                    2 # Frequency ratio between DRAM data bus and command bus (default = 2 times, i.e. DDR)
-gpgpu_dram_timing_opt nbk=16:CCD=1:RRD=4:RCD=14:RAS=33:RP=14:RC=47:CL=14:WL=2:CDLR=3:WR=12:nbkgrp=4:CCDL=2:RTPL=4 # DRAM timing parameters = {nbk:tCCD:tRRD:tRCD:tRAS:tRP:tRC:CL:WL:tCDLR:tWR:nbkgrp:tCCDL:tRTPL}
-gpgpu_l2_rop_latency                  120 # ROP queue latency (default 85)
-dram_latency                         100 # DRAM latency (default 30)
-dram_dual_bus_interface                    1 # dual_bus_interface (default = 0) 
-dram_bnk_indexing_policy                    0 # dram_bnk_indexing_policy (0 = normal indexing, 1 = Xoring with the higher bits) (Default = 0)
-dram_bnkgrp_indexing_policy                    1 # dram_bnkgrp_indexing_policy (0 = take higher bits, 1 = take lower bits) (Default = 0)
-dram_seperate_write_queue_enable                    0 # Seperate_Write_Queue_Enable
-dram_write_queue_size             32:28:16 # Write_Queue_Size
-dram_elimnate_rw_turnaround                    0 # elimnate_rw_turnaround i.e set tWTR and tRTW = 0
-icnt_flit_size                        40 # icnt_flit_size
-gpgpu_mem_addr_mapping dramid@8;00000000.00000000.00000000.00000000.0000RRRR.RRRRRRRR.RBBBCCCB.CCCSSSSS # mapping memory address to dram model {dramid@<start bit>;<memory address map>}
-gpgpu_mem_addr_test                    0 # run sweep test to check address mapping for aliased address
-gpgpu_mem_address_mask                    1 # 0 = old addressing mask, 1 = new addressing mask, 2 = new add. mask + flipped bank sel and chip sel bits
-gpgpu_memory_partition_indexing                    2 # 0 = no indexing, 1 = bitwise xoring, 2 = IPoly, 3 = custom indexing
-use_ramulator                          0 # 0: gpgpu-sim for dram sim; 1: ramulator
-use_xom                                0 # 0: don't use mixtur-of-memory
-ramulator_mem_type                   HBM # HBM, PCM, GDDR5, GDDR6, HMS
-dram_cache_line_size                  256 # dedicated dram-cache line size (not implemented now)
-num_dram_pages                         1 # number of normal dram holds pages [e.g. 25% tot_memory_foot_prints] (not implemented now)
-num_total_pages                        1 # number of other mem-node holds pages [e.g. 75% tot_memory_foot_prints] (not implemented now)
-accelwattch_xml_file accelwattch_sass_sim.xml # AccelWattch XML file
-power_simulation_enabled                    0 # Turn on power simulator (1=On, 0=Off)
-power_per_cycle_dump                    0 # Dump detailed power output each cycle
-hw_perf_file_name            hw_perf.csv # Hardware Performance Statistics file
-hw_perf_bench_name                       # Kernel Name in Hardware Performance Statistics file
-power_simulation_mode                    0 # Switch performance counter input for power simulation (0=Sim, 1=HW, 2=HW-Sim Hybrid)
-dvfs_enabled                           0 # Turn on DVFS for power model
-aggregate_power_stats                    0 # Accumulate power across all kernels
-accelwattch_hybrid_perfsim_L1_RH                    0 # Get L1 Read Hits for Accelwattch-Hybrid from Accel-Sim
-accelwattch_hybrid_perfsim_L1_RM                    0 # Get L1 Read Misses for Accelwattch-Hybrid from Accel-Sim
-accelwattch_hybrid_perfsim_L1_WH                    0 # Get L1 Write Hits for Accelwattch-Hybrid from Accel-Sim
-accelwattch_hybrid_perfsim_L1_WM                    0 # Get L1 Write Misses for Accelwattch-Hybrid from Accel-Sim
-accelwattch_hybrid_perfsim_L2_RH                    0 # Get L2 Read Hits for Accelwattch-Hybrid from Accel-Sim
-accelwattch_hybrid_perfsim_L2_RM                    0 # Get L2 Read Misses for Accelwattch-Hybrid from Accel-Sim
-accelwattch_hybrid_perfsim_L2_WH                    0 # Get L2 Write Hits for Accelwattch-Hybrid from Accel-Sim
-accelwattch_hybrid_perfsim_L2_WM                    0 # Get L2 Write Misses for Accelwattch-Hybrid from Accel-Sim
-accelwattch_hybrid_perfsim_CC_ACC                    0 # Get Constant Cache Acesses for Accelwattch-Hybrid from Accel-Sim
-accelwattch_hybrid_perfsim_SHARED_ACC                    0 # Get Shared Memory Acesses for Accelwattch-Hybrid from Accel-Sim
-accelwattch_hybrid_perfsim_DRAM_RD                    0 # Get DRAM Reads for Accelwattch-Hybrid from Accel-Sim
-accelwattch_hybrid_perfsim_DRAM_WR                    0 # Get DRAM Writes for Accelwattch-Hybrid from Accel-Sim
-accelwattch_hybrid_perfsim_NOC                    0 # Get Interconnect Acesses for Accelwattch-Hybrid from Accel-Sim
-accelwattch_hybrid_perfsim_PIPE_DUTY                    0 # Get Pipeline Duty Cycle Acesses for Accelwattch-Hybrid from Accel-Sim
-accelwattch_hybrid_perfsim_NUM_SM_IDLE                    0 # Get Number of Idle SMs for Accelwattch-Hybrid from Accel-Sim
-accelwattch_hybrid_perfsim_CYCLES                    0 # Get Executed Cycles for Accelwattch-Hybrid from Accel-Sim
-accelwattch_hybrid_perfsim_VOLTAGE                    0 # Get Chip Voltage for Accelwattch-Hybrid from Accel-Sim
-power_trace_enabled                    0 # produce a file for the power trace (1=On, 0=Off)
-power_trace_zlevel                     6 # Compression level of the power trace output log (0=no comp, 9=highest)
-steady_power_levels_enabled                    0 # produce a file for the steady power levels (1=On, 0=Off)
-steady_state_definition                  8:4 # allowed deviation:number of samples
-interconnect_power                     8 # Interconnect Power pJ/bit
-gpgpu_max_cycle                        0 # terminates gpu simulation early (0 = no limit)
-gpgpu_max_insn                         0 # terminates gpu simulation early (0 = no limit)
-gpgpu_max_cta                          0 # terminates gpu simulation early (0 = no limit)
-gpgpu_max_completed_cta                    0 # terminates gpu simulation early (0 = no limit)
-gpgpu_runtime_stat                   500 # display runtime statistics such as dram utilization {<freq>:<flag>}
-liveness_message_freq                    1 # Minimum number of seconds between simulation liveness messages (0 = always print)
-gpgpu_compute_capability_major                    8 # Major compute capability version number
-gpgpu_compute_capability_minor                    6 # Minor compute capability version number
-gpgpu_flush_l1_cache                    1 # Flush L1 cache at the end of each kernel call
-gpgpu_flush_l2_cache                    0 # Flush L2 cache at the end of each kernel call
-gpgpu_deadlock_detect                    0 # Stop the simulation at deadlock (1=on (default), 0=off)
-gpgpu_ptx_instruction_classification                    0 # if enabled will classify ptx instruction types per kernel (Max 255 kernels now)
-gpgpu_ptx_sim_mode                     0 # Select between Performance (default) or Functional simulation (1)
-gpgpu_clock_domains     901:901:901:1000 # Clock Domain Frequencies in MhZ {<Core Clock>:<ICNT Clock>:<L2 Clock>:<DRAM Clock>}
-gpgpu_max_concurrent_kernel                    8 # maximum kernels that can run concurrently on GPU
-gpgpu_cflog_interval                    0 # Interval between each snapshot in control flow logger
-visualizer_enabled                     0 # Turn on visualizer output (1=On, 0=Off)
-visualizer_outputfile                 NULL # Specifies the output log file for visualizer
-visualizer_zlevel                      6 # Compression level of the visualizer output log (0=no comp, 9=highest)
-gpgpu_stack_size_limit                 1024 # GPU thread stack size
-gpgpu_heap_size_limit              8388608 # GPU malloc heap size 
-gpgpu_runtime_sync_depth_limit                    2 # GPU device runtime synchronize depth
-gpgpu_runtime_pending_launch_count_limit                 2048 # GPU device runtime pending launch count
-trace_enabled                          0 # Turn on traces
-trace_components                    none # comma seperated list of traces to enable. Complete list found in trace_streams.tup. Default none
-trace_sampling_core                    0 # The core which is printed using CORE_DPRINTF. Default 0
-trace_sampling_memory_partition                   -1 # The memory partition which is printed using MEMPART_DPRINTF. Default -1 (i.e. all)
-enable_ptx_file_line_stats                    1 # Turn on PTX source line statistic profiling. (1 = On)
-ptx_line_stats_filename gpgpu_inst_stats.txt # Output file for PTX source line statistics.
-gpgpu_kernel_launch_latency                 5000 # Kernel launch latency in cycles. Default: 0
-gpgpu_cdp_enabled                      0 # Turn on CDP
-gpgpu_TB_launch_latency                    0 # thread block launch latency in cycles. Default: 0
-gddr_size                            1GB # Size of GDDR in MB/GB.(GLOBAL_HEAP_START, GLOBAL_HEAP_START + gddr_size) would be used for unmanged memory, (GLOBAL_HEAP_START + gddr_size, GLOBAL_HEAP_START + gddr_size*2) would be used for managed memory. 
-oversub                                0 # whether enable oversubscription, 0 for no, 1 to 3 for 110,125,150 oversub
-crypto_perc                            0 # how many percentage in a malloc allocation is protected
-page_table_walk_latency                  100 # Average page table walk latency (in core cycle).
-eviction_policy                        1 # Select page eviction policy
-invalidate_clean                       0 # Should directly invalidate clean pages
-reserve_accessed_page_percent                    0 # Percentage of accessed pages reserved from eviction in hope that they will be accessed in next iteration.
-percentage_of_free_page_buffer                    0 # Percentage of free page buffer to trigger the page eviction.
-page_size                            4KB # GDDR page size, only 4KB/2MB avaliable.
-pcie_bandwidth                  32.0GB/s # PCI-e bandwidth per direction, in GB/s.
-enc_frac                               0 # fraction of protected pages, 0->100, 0: no protection
-enable_dma                             0 # Enable direct access to CPU memory
-multiply_dma_penalty                    2 # Oversubscription Multiplicative Penalty Factor for Adaptive DMA
-migrate_threshold                      8 # Access counter threshold for migrating the page from cpu to gpu
-sim_prof_enable                        1 # Enable gpgpu-sim profiler
-hardware_prefetch                      0 # Select gpgpu-sim hardware prefetcher
-hwprefetch_oversub                     0 # Select gpgpu-sim hardware prefetcher under over-subscription
-page_fault_latency                 18020 # Average fault latency (in core cycle).
-enable_accurate_simulation                    0 # Enable page fault functional simulation.
-enable_smart_runtime                    0 # Enable access pattern detection, policy engine, and adaptive memory management.
-skip_cycles_enable                     0 # Enable skip cycles if all warps stall and wait for page fualt
DRAM Timing Options:
nbk                                    16 # number of banks
CCD                                     1 # column to column delay
RRD                                     4 # minimal delay between activation of rows in different banks
RCD                                    14 # row to column delay
RAS                                    33 # time needed to activate row
RP                                     14 # time needed to precharge (deactivate) row
RC                                     47 # row cycle time
CDLR                                    3 # switching from write to read (changes tWTR)
WR                                     12 # last data-in to row precharge
CL                                     14 # CAS latency
WL                                      2 # Write latency
nbkgrp                                  4 # number of bank groups
CCDL                                    2 # column to column delay between accesses to different bank groups
RTPL                                    4 # read to precharge delay between accesses to different bank groups
Total number of memory sub partition = 64
========================================================================
is_xom: 0
========================================================================
addr_dec_mask[CHIP]  = 0000000000001f00 	high:13 low:8
addr_dec_mask[RANK]  = 0000000000000000 	high:64 low:0
addr_dec_mask[BK]    = 00000000000e2000 	high:20 low:13
addr_dec_mask[ROW]   = 00000001fff00000 	high:33 low:20
addr_dec_mask[COL]   = 000000000001c0ff 	high:17 low:0
addr_dec_mask[BURST] = 000000000000001f 	high:5 low:0
sub_partition_id_mask = 0000000000002000
GPGPU-Sim uArch: clock freqs: 901000000.000000:901000000.000000:901000000.000000:1000000000.000000
GPGPU-Sim uArch: clock periods: 0.00000000110987791343:0.00000000110987791343:0.00000000110987791343:0.00000000100000000000
gddr size 1073741824
pcie_bandwidth_string: 32.0GB/s
gpgpu-sim.cc set bwpcie_bandwidth: 32.000000 GB/s
curve_a: 24.000000
curve_b: 0.072920
m_dev_malloc_managed start: 3221225472
f5c54faa408791f5c0e2d92b4d5d2994  /u/xqg5sq/insight-lab/salus/gpu-app-collection/bin/11.8/release2/uvm-2dconv
Extracting PTX file and ptxas options    1: uvm-2dconv.1.sm_75.ptx -arch=sm_75
*** Initializing Memory Statistics ***
GPGPU-Sim uArch: performance model initialization complete.
-----------------------------------
cfg pcie_bandwidth_string: 32.0GB/s
cfg pcie_bandwidth: 32.000000
cfg ptw latency: 100 
cfg pf latency: 18020
-----------------------------------
cudart version 11080
self exe links to: /u/xqg5sq/insight-lab/salus/gpu-app-collection/bin/11.8/release2/uvm-2dconv
*****running application******* uvm-2dconv
self exe links to: /u/xqg5sq/insight-lab/salus/gpu-app-collection/bin/11.8/release2/uvm-2dconv
*****running application******* uvm-2dconv
11.0
GPGPU-Sim PTX: __cudaRegisterFatBinary, fat_cubin_handle = 1, filename=default
self exe links to: /u/xqg5sq/insight-lab/salus/gpu-app-collection/bin/11.8/release2/uvm-2dconv
*****running application******* uvm-2dconv
Running md5sum using "md5sum /u/xqg5sq/insight-lab/salus/gpu-app-collection/bin/11.8/release2/uvm-2dconv "
self exe links to: /u/xqg5sq/insight-lab/salus/gpu-app-collection/bin/11.8/release2/uvm-2dconv
*****running application******* uvm-2dconv
Extracting specific PTX file named uvm-2dconv.1.sm_75.ptx 
GPGPU-Sim PTX: __cudaRegisterFunction _Z20Convolution2D_kernelPfS_ : hostFun 0x0x55f8e726e83e, fat_cubin_handle = 1
GPGPU-Sim PTX: Parsing uvm-2dconv.1.sm_75.ptx
GPGPU-Sim PTX: instruction assembly for function '_Z20Convolution2D_kernelPfS_'...   done.
GPGPU-Sim PTX: finished parsing EMBEDDED .ptx file uvm-2dconv.1.sm_75.ptx
GPGPU-Sim PTX: loading globals with explicit initializers... 
GPGPU-Sim PTX: finished loading globals (0 bytes total).
GPGPU-Sim PTX: loading constants with explicit initializers...  done.
GPGPU-Sim PTX: Loading PTXInfo from uvm-2dconv.1.sm_75.ptx
GPGPU-Sim PTX: Kernel '_Z20Convolution2D_kernelPfS_' : regs=24, lmem=0, smem=0, cmem=368
cudaMallocManagedInternal: 4194304
cpuMemPtr: 0x7f75aa35b010
gpuMemPtr: 0xc0000000
devPtr: 0
cudaMallocManagedInternal: 4194304
cpuMemPtr: 0x7f75a9f5a010
gpuMemPtr: 0xc0400000
devPtr: 0
GPGPU-Sim PTX: Setting up arguments for 8 bytes starting at 0x7ffe17c2a388..
GPGPU-Sim PTX: Setting up arguments for 8 bytes starting at 0x7ffe17c2a380..

GPGPU-Sim PTX: cudaLaunch for 0x0x55f8e726e83e (mode=performance simulation) on stream 0
GPGPU-Sim PTX: finding reconvergence points for '_Z20Convolution2D_kernelPfS_'...
GPGPU-Sim PTX: Finding dominators for '_Z20Convolution2D_kernelPfS_'...
GPGPU-Sim PTX: Finding immediate dominators for '_Z20Convolution2D_kernelPfS_'...
GPGPU-Sim PTX: Finding postdominators for '_Z20Convolution2D_kernelPfS_'...
GPGPU-Sim PTX: Finding immediate postdominators for '_Z20Convolution2D_kernelPfS_'...
GPGPU-Sim PTX: pre-decoding instructions for '_Z20Convolution2D_kernelPfS_'...
GPGPU-Sim PTX: reconvergence points for _Z20Convolution2D_kernelPfS_...
GPGPU-Sim PTX:  1 (potential) branch divergence @  PC=0x078 (uvm-2dconv.1.sm_75.ptx:41) @%p3 bra $L__BB0_2;
GPGPU-Sim PTX:    immediate post dominator      @  PC=0x168 (uvm-2dconv.1.sm_75.ptx:74) ret;
GPGPU-Sim PTX: ... end of reconvergence points for _Z20Convolution2D_kernelPfS_
GPGPU-Sim PTX: ... done pre-decoding instructions for '_Z20Convolution2D_kernelPfS_'.
GPGPU-Sim PTX: pushing kernel '_Z20Convolution2D_kernelPfS_' to stream 0, gridDim= (32,128,1) blockDim = (32,8,1) 
GPGPU-Sim uArch: Shader 0 bind to kernel 1 '_Z20Convolution2D_kernelPfS_'
GPGPU-Sim uArch: CTA/core = 8, limited by: threads
GPGPU-Sim: Reconfigure L1 cache to 192KB
GPGPU-Sim uArch: Shader 1 bind to kernel 1 '_Z20Convolution2D_kernelPfS_'
GPGPU-Sim uArch: Shader 2 bind to kernel 1 '_Z20Convolution2D_kernelPfS_'
GPGPU-Sim uArch: Shader 3 bind to kernel 1 '_Z20Convolution2D_kernelPfS_'
GPGPU-Sim uArch: Shader 4 bind to kernel 1 '_Z20Convolution2D_kernelPfS_'
GPGPU-Sim uArch: Shader 5 bind to kernel 1 '_Z20Convolution2D_kernelPfS_'
GPGPU-Sim uArch: Shader 6 bind to kernel 1 '_Z20Convolution2D_kernelPfS_'
GPGPU-Sim uArch: Shader 7 bind to kernel 1 '_Z20Convolution2D_kernelPfS_'
GPGPU-Sim uArch: Shader 8 bind to kernel 1 '_Z20Convolution2D_kernelPfS_'
GPGPU-Sim uArch: Shader 9 bind to kernel 1 '_Z20Convolution2D_kernelPfS_'
GPGPU-Sim uArch: Shader 10 bind to kernel 1 '_Z20Convolution2D_kernelPfS_'
GPGPU-Sim uArch: Shader 11 bind to kernel 1 '_Z20Convolution2D_kernelPfS_'
GPGPU-Sim uArch: Shader 12 bind to kernel 1 '_Z20Convolution2D_kernelPfS_'
GPGPU-Sim uArch: Shader 13 bind to kernel 1 '_Z20Convolution2D_kernelPfS_'
GPGPU-Sim uArch: Shader 14 bind to kernel 1 '_Z20Convolution2D_kernelPfS_'
GPGPU-Sim uArch: Shader 15 bind to kernel 1 '_Z20Convolution2D_kernelPfS_'
GPGPU-Sim uArch: Shader 16 bind to kernel 1 '_Z20Convolution2D_kernelPfS_'
GPGPU-Sim uArch: Shader 17 bind to kernel 1 '_Z20Convolution2D_kernelPfS_'
GPGPU-Sim uArch: Shader 18 bind to kernel 1 '_Z20Convolution2D_kernelPfS_'
GPGPU-Sim uArch: Shader 19 bind to kernel 1 '_Z20Convolution2D_kernelPfS_'
GPGPU-Sim uArch: Shader 20 bind to kernel 1 '_Z20Convolution2D_kernelPfS_'
GPGPU-Sim uArch: Shader 21 bind to kernel 1 '_Z20Convolution2D_kernelPfS_'
GPGPU-Sim uArch: Shader 22 bind to kernel 1 '_Z20Convolution2D_kernelPfS_'
GPGPU-Sim uArch: Shader 23 bind to kernel 1 '_Z20Convolution2D_kernelPfS_'
GPGPU-Sim uArch: Shader 24 bind to kernel 1 '_Z20Convolution2D_kernelPfS_'
GPGPU-Sim uArch: Shader 25 bind to kernel 1 '_Z20Convolution2D_kernelPfS_'
GPGPU-Sim uArch: Shader 26 bind to kernel 1 '_Z20Convolution2D_kernelPfS_'
GPGPU-Sim uArch: Shader 27 bind to kernel 1 '_Z20Convolution2D_kernelPfS_'
GPGPU-Sim uArch: Shader 28 bind to kernel 1 '_Z20Convolution2D_kernelPfS_'
GPGPU-Sim uArch: Shader 29 bind to kernel 1 '_Z20Convolution2D_kernelPfS_'
GPGPU-Sim uArch: Shader 30 bind to kernel 1 '_Z20Convolution2D_kernelPfS_'
GPGPU-Sim uArch: Shader 31 bind to kernel 1 '_Z20Convolution2D_kernelPfS_'
GPGPU-Sim uArch: Shader 32 bind to kernel 1 '_Z20Convolution2D_kernelPfS_'
GPGPU-Sim uArch: Shader 33 bind to kernel 1 '_Z20Convolution2D_kernelPfS_'
GPGPU-Sim uArch: Shader 34 bind to kernel 1 '_Z20Convolution2D_kernelPfS_'
GPGPU-Sim uArch: Shader 35 bind to kernel 1 '_Z20Convolution2D_kernelPfS_'
GPGPU-Sim uArch: Shader 36 bind to kernel 1 '_Z20Convolution2D_kernelPfS_'
GPGPU-Sim uArch: Shader 37 bind to kernel 1 '_Z20Convolution2D_kernelPfS_'
GPGPU-Sim uArch: Shader 38 bind to kernel 1 '_Z20Convolution2D_kernelPfS_'
GPGPU-Sim uArch: Shader 39 bind to kernel 1 '_Z20Convolution2D_kernelPfS_'
GPGPU-Sim uArch: Shader 40 bind to kernel 1 '_Z20Convolution2D_kernelPfS_'
GPGPU-Sim uArch: Shader 41 bind to kernel 1 '_Z20Convolution2D_kernelPfS_'
GPGPU-Sim uArch: Shader 42 bind to kernel 1 '_Z20Convolution2D_kernelPfS_'
GPGPU-Sim uArch: Shader 43 bind to kernel 1 '_Z20Convolution2D_kernelPfS_'
GPGPU-Sim uArch: Shader 44 bind to kernel 1 '_Z20Convolution2D_kernelPfS_'
GPGPU-Sim uArch: Shader 45 bind to kernel 1 '_Z20Convolution2D_kernelPfS_'
GPGPU-Sim uArch: Shader 46 bind to kernel 1 '_Z20Convolution2D_kernelPfS_'
GPGPU-Sim uArch: Shader 47 bind to kernel 1 '_Z20Convolution2D_kernelPfS_'
GPGPU-Sim uArch: Shader 48 bind to kernel 1 '_Z20Convolution2D_kernelPfS_'
GPGPU-Sim uArch: Shader 49 bind to kernel 1 '_Z20Convolution2D_kernelPfS_'
GPGPU-Sim uArch: Shader 50 bind to kernel 1 '_Z20Convolution2D_kernelPfS_'
GPGPU-Sim uArch: Shader 51 bind to kernel 1 '_Z20Convolution2D_kernelPfS_'
GPGPU-Sim uArch: Shader 52 bind to kernel 1 '_Z20Convolution2D_kernelPfS_'
GPGPU-Sim uArch: Shader 53 bind to kernel 1 '_Z20Convolution2D_kernelPfS_'
GPGPU-Sim uArch: Shader 54 bind to kernel 1 '_Z20Convolution2D_kernelPfS_'
GPGPU-Sim uArch: Shader 55 bind to kernel 1 '_Z20Convolution2D_kernelPfS_'
GPGPU-Sim uArch: Shader 56 bind to kernel 1 '_Z20Convolution2D_kernelPfS_'
GPGPU-Sim uArch: Shader 57 bind to kernel 1 '_Z20Convolution2D_kernelPfS_'
GPGPU-Sim uArch: Shader 58 bind to kernel 1 '_Z20Convolution2D_kernelPfS_'
GPGPU-Sim uArch: Shader 59 bind to kernel 1 '_Z20Convolution2D_kernelPfS_'
GPGPU-Sim uArch: Shader 60 bind to kernel 1 '_Z20Convolution2D_kernelPfS_'
GPGPU-Sim uArch: Shader 61 bind to kernel 1 '_Z20Convolution2D_kernelPfS_'
GPGPU-Sim uArch: Shader 62 bind to kernel 1 '_Z20Convolution2D_kernelPfS_'
GPGPU-Sim uArch: Shader 63 bind to kernel 1 '_Z20Convolution2D_kernelPfS_'
GPGPU-Sim uArch: Shader 64 bind to kernel 1 '_Z20Convolution2D_kernelPfS_'
GPGPU-Sim uArch: Shader 65 bind to kernel 1 '_Z20Convolution2D_kernelPfS_'
GPGPU-Sim uArch: Shader 66 bind to kernel 1 '_Z20Convolution2D_kernelPfS_'
GPGPU-Sim uArch: Shader 67 bind to kernel 1 '_Z20Convolution2D_kernelPfS_'
GPGPU-Sim uArch: Shader 68 bind to kernel 1 '_Z20Convolution2D_kernelPfS_'
GPGPU-Sim uArch: Shader 69 bind to kernel 1 '_Z20Convolution2D_kernelPfS_'
GPGPU-Sim uArch: Shader 70 bind to kernel 1 '_Z20Convolution2D_kernelPfS_'
GPGPU-Sim uArch: Shader 71 bind to kernel 1 '_Z20Convolution2D_kernelPfS_'
GPGPU-Sim uArch: Shader 72 bind to kernel 1 '_Z20Convolution2D_kernelPfS_'
GPGPU-Sim uArch: Shader 73 bind to kernel 1 '_Z20Convolution2D_kernelPfS_'
GPGPU-Sim uArch: Shader 74 bind to kernel 1 '_Z20Convolution2D_kernelPfS_'
GPGPU-Sim uArch: Shader 75 bind to kernel 1 '_Z20Convolution2D_kernelPfS_'
GPGPU-Sim uArch: Shader 76 bind to kernel 1 '_Z20Convolution2D_kernelPfS_'
GPGPU-Sim uArch: Shader 77 bind to kernel 1 '_Z20Convolution2D_kernelPfS_'
GPGPU-Sim uArch: Shader 78 bind to kernel 1 '_Z20Convolution2D_kernelPfS_'
GPGPU-Sim uArch: Shader 79 bind to kernel 1 '_Z20Convolution2D_kernelPfS_'
GPGPU-Sim uArch: Shader 0 bind to kernel 1 '_Z20Convolution2D_kernelPfS_'
GPGPU-Sim uArch: Shader 1 bind to kernel 1 '_Z20Convolution2D_kernelPfS_'
GPGPU-Sim uArch: Shader 2 bind to kernel 1 '_Z20Convolution2D_kernelPfS_'
GPGPU-Sim uArch: Shader 3 bind to kernel 1 '_Z20Convolution2D_kernelPfS_'
GPGPU-Sim uArch: Shader 4 bind to kernel 1 '_Z20Convolution2D_kernelPfS_'
GPGPU-Sim uArch: Shader 5 bind to kernel 1 '_Z20Convolution2D_kernelPfS_'
GPGPU-Sim uArch: Shader 6 bind to kernel 1 '_Z20Convolution2D_kernelPfS_'
GPGPU-Sim uArch: Shader 7 bind to kernel 1 '_Z20Convolution2D_kernelPfS_'
GPGPU-Sim uArch: Shader 8 bind to kernel 1 '_Z20Convolution2D_kernelPfS_'
GPGPU-Sim uArch: Shader 9 bind to kernel 1 '_Z20Convolution2D_kernelPfS_'
GPGPU-Sim uArch: Shader 10 bind to kernel 1 '_Z20Convolution2D_kernelPfS_'
GPGPU-Sim uArch: Shader 11 bind to kernel 1 '_Z20Convolution2D_kernelPfS_'
GPGPU-Sim uArch: Shader 12 bind to kernel 1 '_Z20Convolution2D_kernelPfS_'
GPGPU-Sim uArch: Shader 13 bind to kernel 1 '_Z20Convolution2D_kernelPfS_'
GPGPU-Sim uArch: Shader 14 bind to kernel 1 '_Z20Convolution2D_kernelPfS_'
GPGPU-Sim uArch: Shader 15 bind to kernel 1 '_Z20Convolution2D_kernelPfS_'
GPGPU-Sim uArch: Shader 16 bind to kernel 1 '_Z20Convolution2D_kernelPfS_'
GPGPU-Sim uArch: Shader 17 bind to kernel 1 '_Z20Convolution2D_kernelPfS_'
GPGPU-Sim uArch: Shader 18 bind to kernel 1 '_Z20Convolution2D_kernelPfS_'
GPGPU-Sim uArch: Shader 19 bind to kernel 1 '_Z20Convolution2D_kernelPfS_'
GPGPU-Sim uArch: Shader 20 bind to kernel 1 '_Z20Convolution2D_kernelPfS_'
GPGPU-Sim uArch: Shader 21 bind to kernel 1 '_Z20Convolution2D_kernelPfS_'
GPGPU-Sim uArch: Shader 22 bind to kernel 1 '_Z20Convolution2D_kernelPfS_'
GPGPU-Sim uArch: Shader 23 bind to kernel 1 '_Z20Convolution2D_kernelPfS_'
GPGPU-Sim uArch: Shader 24 bind to kernel 1 '_Z20Convolution2D_kernelPfS_'
GPGPU-Sim uArch: Shader 25 bind to kernel 1 '_Z20Convolution2D_kernelPfS_'
GPGPU-Sim uArch: Shader 26 bind to kernel 1 '_Z20Convolution2D_kernelPfS_'
GPGPU-Sim uArch: Shader 27 bind to kernel 1 '_Z20Convolution2D_kernelPfS_'
GPGPU-Sim uArch: Shader 28 bind to kernel 1 '_Z20Convolution2D_kernelPfS_'
GPGPU-Sim uArch: Shader 29 bind to kernel 1 '_Z20Convolution2D_kernelPfS_'
GPGPU-Sim uArch: Shader 30 bind to kernel 1 '_Z20Convolution2D_kernelPfS_'
GPGPU-Sim uArch: Shader 31 bind to kernel 1 '_Z20Convolution2D_kernelPfS_'
GPGPU-Sim uArch: Shader 32 bind to kernel 1 '_Z20Convolution2D_kernelPfS_'
GPGPU-Sim uArch: Shader 33 bind to kernel 1 '_Z20Convolution2D_kernelPfS_'
GPGPU-Sim uArch: Shader 34 bind to kernel 1 '_Z20Convolution2D_kernelPfS_'
GPGPU-Sim uArch: Shader 35 bind to kernel 1 '_Z20Convolution2D_kernelPfS_'
GPGPU-Sim uArch: Shader 36 bind to kernel 1 '_Z20Convolution2D_kernelPfS_'
GPGPU-Sim uArch: Shader 37 bind to kernel 1 '_Z20Convolution2D_kernelPfS_'
GPGPU-Sim uArch: Shader 38 bind to kernel 1 '_Z20Convolution2D_kernelPfS_'
GPGPU-Sim uArch: Shader 39 bind to kernel 1 '_Z20Convolution2D_kernelPfS_'
GPGPU-Sim uArch: Shader 40 bind to kernel 1 '_Z20Convolution2D_kernelPfS_'
GPGPU-Sim uArch: Shader 41 bind to kernel 1 '_Z20Convolution2D_kernelPfS_'
GPGPU-Sim uArch: Shader 42 bind to kernel 1 '_Z20Convolution2D_kernelPfS_'
GPGPU-Sim uArch: Shader 43 bind to kernel 1 '_Z20Convolution2D_kernelPfS_'
GPGPU-Sim uArch: Shader 44 bind to kernel 1 '_Z20Convolution2D_kernelPfS_'
GPGPU-Sim uArch: Shader 45 bind to kernel 1 '_Z20Convolution2D_kernelPfS_'
GPGPU-Sim uArch: Shader 46 bind to kernel 1 '_Z20Convolution2D_kernelPfS_'
GPGPU-Sim uArch: Shader 47 bind to kernel 1 '_Z20Convolution2D_kernelPfS_'
GPGPU-Sim uArch: Shader 48 bind to kernel 1 '_Z20Convolution2D_kernelPfS_'
GPGPU-Sim uArch: Shader 49 bind to kernel 1 '_Z20Convolution2D_kernelPfS_'
GPGPU-Sim uArch: Shader 50 bind to kernel 1 '_Z20Convolution2D_kernelPfS_'
GPGPU-Sim uArch: Shader 51 bind to kernel 1 '_Z20Convolution2D_kernelPfS_'
GPGPU-Sim uArch: Shader 52 bind to kernel 1 '_Z20Convolution2D_kernelPfS_'
GPGPU-Sim uArch: Shader 53 bind to kernel 1 '_Z20Convolution2D_kernelPfS_'
GPGPU-Sim uArch: Shader 54 bind to kernel 1 '_Z20Convolution2D_kernelPfS_'
GPGPU-Sim uArch: Shader 55 bind to kernel 1 '_Z20Convolution2D_kernelPfS_'
GPGPU-Sim uArch: Shader 56 bind to kernel 1 '_Z20Convolution2D_kernelPfS_'
GPGPU-Sim uArch: Shader 57 bind to kernel 1 '_Z20Convolution2D_kernelPfS_'
GPGPU-Sim uArch: Shader 58 bind to kernel 1 '_Z20Convolution2D_kernelPfS_'
GPGPU-Sim uArch: Shader 59 bind to kernel 1 '_Z20Convolution2D_kernelPfS_'
GPGPU-Sim uArch: Shader 60 bind to kernel 1 '_Z20Convolution2D_kernelPfS_'
GPGPU-Sim uArch: Shader 61 bind to kernel 1 '_Z20Convolution2D_kernelPfS_'
GPGPU-Sim uArch: Shader 62 bind to kernel 1 '_Z20Convolution2D_kernelPfS_'
GPGPU-Sim uArch: Shader 63 bind to kernel 1 '_Z20Convolution2D_kernelPfS_'
GPGPU-Sim uArch: Shader 64 bind to kernel 1 '_Z20Convolution2D_kernelPfS_'
GPGPU-Sim uArch: Shader 65 bind to kernel 1 '_Z20Convolution2D_kernelPfS_'
GPGPU-Sim uArch: Shader 66 bind to kernel 1 '_Z20Convolution2D_kernelPfS_'
GPGPU-Sim uArch: Shader 67 bind to kernel 1 '_Z20Convolution2D_kernelPfS_'
GPGPU-Sim uArch: Shader 68 bind to kernel 1 '_Z20Convolution2D_kernelPfS_'
GPGPU-Sim uArch: Shader 69 bind to kernel 1 '_Z20Convolution2D_kernelPfS_'
GPGPU-Sim uArch: Shader 70 bind to kernel 1 '_Z20Convolution2D_kernelPfS_'
GPGPU-Sim uArch: Shader 71 bind to kernel 1 '_Z20Convolution2D_kernelPfS_'
GPGPU-Sim uArch: Shader 72 bind to kernel 1 '_Z20Convolution2D_kernelPfS_'
GPGPU-Sim uArch: Shader 73 bind to kernel 1 '_Z20Convolution2D_kernelPfS_'
GPGPU-Sim uArch: Shader 74 bind to kernel 1 '_Z20Convolution2D_kernelPfS_'
GPGPU-Sim uArch: Shader 75 bind to kernel 1 '_Z20Convolution2D_kernelPfS_'
GPGPU-Sim uArch: Shader 76 bind to kernel 1 '_Z20Convolution2D_kernelPfS_'
GPGPU-Sim uArch: Shader 77 bind to kernel 1 '_Z20Convolution2D_kernelPfS_'
GPGPU-Sim uArch: Shader 78 bind to kernel 1 '_Z20Convolution2D_kernelPfS_'
GPGPU-Sim uArch: Shader 79 bind to kernel 1 '_Z20Convolution2D_kernelPfS_'
GPGPU-Sim uArch: Shader 0 bind to kernel 1 '_Z20Convolution2D_kernelPfS_'
GPGPU-Sim uArch: Shader 1 bind to kernel 1 '_Z20Convolution2D_kernelPfS_'
GPGPU-Sim uArch: Shader 2 bind to kernel 1 '_Z20Convolution2D_kernelPfS_'
GPGPU-Sim uArch: Shader 3 bind to kernel 1 '_Z20Convolution2D_kernelPfS_'
GPGPU-Sim uArch: Shader 4 bind to kernel 1 '_Z20Convolution2D_kernelPfS_'
GPGPU-Sim uArch: Shader 5 bind to kernel 1 '_Z20Convolution2D_kernelPfS_'
GPGPU-Sim uArch: Shader 6 bind to kernel 1 '_Z20Convolution2D_kernelPfS_'
GPGPU-Sim uArch: Shader 7 bind to kernel 1 '_Z20Convolution2D_kernelPfS_'
GPGPU-Sim uArch: Shader 8 bind to kernel 1 '_Z20Convolution2D_kernelPfS_'
GPGPU-Sim uArch: Shader 9 bind to kernel 1 '_Z20Convolution2D_kernelPfS_'
GPGPU-Sim uArch: Shader 10 bind to kernel 1 '_Z20Convolution2D_kernelPfS_'
GPGPU-Sim uArch: Shader 11 bind to kernel 1 '_Z20Convolution2D_kernelPfS_'
GPGPU-Sim uArch: Shader 12 bind to kernel 1 '_Z20Convolution2D_kernelPfS_'
GPGPU-Sim uArch: Shader 13 bind to kernel 1 '_Z20Convolution2D_kernelPfS_'
GPGPU-Sim uArch: Shader 14 bind to kernel 1 '_Z20Convolution2D_kernelPfS_'
GPGPU-Sim uArch: Shader 15 bind to kernel 1 '_Z20Convolution2D_kernelPfS_'
GPGPU-Sim uArch: Shader 16 bind to kernel 1 '_Z20Convolution2D_kernelPfS_'
GPGPU-Sim uArch: Shader 17 bind to kernel 1 '_Z20Convolution2D_kernelPfS_'
GPGPU-Sim uArch: Shader 18 bind to kernel 1 '_Z20Convolution2D_kernelPfS_'
GPGPU-Sim uArch: Shader 19 bind to kernel 1 '_Z20Convolution2D_kernelPfS_'
GPGPU-Sim uArch: Shader 20 bind to kernel 1 '_Z20Convolution2D_kernelPfS_'
GPGPU-Sim uArch: Shader 21 bind to kernel 1 '_Z20Convolution2D_kernelPfS_'
GPGPU-Sim uArch: Shader 22 bind to kernel 1 '_Z20Convolution2D_kernelPfS_'
GPGPU-Sim uArch: Shader 23 bind to kernel 1 '_Z20Convolution2D_kernelPfS_'
GPGPU-Sim uArch: Shader 24 bind to kernel 1 '_Z20Convolution2D_kernelPfS_'
GPGPU-Sim uArch: Shader 25 bind to kernel 1 '_Z20Convolution2D_kernelPfS_'
GPGPU-Sim uArch: Shader 26 bind to kernel 1 '_Z20Convolution2D_kernelPfS_'
GPGPU-Sim uArch: Shader 27 bind to kernel 1 '_Z20Convolution2D_kernelPfS_'
GPGPU-Sim uArch: Shader 28 bind to kernel 1 '_Z20Convolution2D_kernelPfS_'
GPGPU-Sim uArch: Shader 29 bind to kernel 1 '_Z20Convolution2D_kernelPfS_'
GPGPU-Sim uArch: Shader 30 bind to kernel 1 '_Z20Convolution2D_kernelPfS_'
GPGPU-Sim uArch: Shader 31 bind to kernel 1 '_Z20Convolution2D_kernelPfS_'
GPGPU-Sim uArch: Shader 32 bind to kernel 1 '_Z20Convolution2D_kernelPfS_'
GPGPU-Sim uArch: Shader 33 bind to kernel 1 '_Z20Convolution2D_kernelPfS_'
GPGPU-Sim uArch: Shader 34 bind to kernel 1 '_Z20Convolution2D_kernelPfS_'
GPGPU-Sim uArch: Shader 35 bind to kernel 1 '_Z20Convolution2D_kernelPfS_'
GPGPU-Sim uArch: Shader 36 bind to kernel 1 '_Z20Convolution2D_kernelPfS_'
GPGPU-Sim uArch: Shader 37 bind to kernel 1 '_Z20Convolution2D_kernelPfS_'
GPGPU-Sim uArch: Shader 38 bind to kernel 1 '_Z20Convolution2D_kernelPfS_'
GPGPU-Sim uArch: Shader 39 bind to kernel 1 '_Z20Convolution2D_kernelPfS_'
GPGPU-Sim uArch: Shader 40 bind to kernel 1 '_Z20Convolution2D_kernelPfS_'
GPGPU-Sim uArch: Shader 41 bind to kernel 1 '_Z20Convolution2D_kernelPfS_'
GPGPU-Sim uArch: Shader 42 bind to kernel 1 '_Z20Convolution2D_kernelPfS_'
GPGPU-Sim uArch: Shader 43 bind to kernel 1 '_Z20Convolution2D_kernelPfS_'
GPGPU-Sim uArch: Shader 44 bind to kernel 1 '_Z20Convolution2D_kernelPfS_'
GPGPU-Sim uArch: Shader 45 bind to kernel 1 '_Z20Convolution2D_kernelPfS_'
GPGPU-Sim uArch: Shader 46 bind to kernel 1 '_Z20Convolution2D_kernelPfS_'
GPGPU-Sim uArch: Shader 47 bind to kernel 1 '_Z20Convolution2D_kernelPfS_'
GPGPU-Sim uArch: Shader 48 bind to kernel 1 '_Z20Convolution2D_kernelPfS_'
GPGPU-Sim uArch: Shader 49 bind to kernel 1 '_Z20Convolution2D_kernelPfS_'
GPGPU-Sim uArch: Shader 50 bind to kernel 1 '_Z20Convolution2D_kernelPfS_'
GPGPU-Sim uArch: Shader 51 bind to kernel 1 '_Z20Convolution2D_kernelPfS_'
GPGPU-Sim uArch: Shader 52 bind to kernel 1 '_Z20Convolution2D_kernelPfS_'
GPGPU-Sim uArch: Shader 53 bind to kernel 1 '_Z20Convolution2D_kernelPfS_'
GPGPU-Sim uArch: Shader 54 bind to kernel 1 '_Z20Convolution2D_kernelPfS_'
GPGPU-Sim uArch: Shader 55 bind to kernel 1 '_Z20Convolution2D_kernelPfS_'
GPGPU-Sim uArch: Shader 56 bind to kernel 1 '_Z20Convolution2D_kernelPfS_'
GPGPU-Sim uArch: Shader 57 bind to kernel 1 '_Z20Convolution2D_kernelPfS_'
GPGPU-Sim uArch: Shader 58 bind to kernel 1 '_Z20Convolution2D_kernelPfS_'
GPGPU-Sim uArch: Shader 59 bind to kernel 1 '_Z20Convolution2D_kernelPfS_'
GPGPU-Sim uArch: Shader 60 bind to kernel 1 '_Z20Convolution2D_kernelPfS_'
GPGPU-Sim uArch: Shader 61 bind to kernel 1 '_Z20Convolution2D_kernelPfS_'
GPGPU-Sim uArch: Shader 62 bind to kernel 1 '_Z20Convolution2D_kernelPfS_'
GPGPU-Sim uArch: Shader 63 bind to kernel 1 '_Z20Convolution2D_kernelPfS_'
GPGPU-Sim uArch: Shader 64 bind to kernel 1 '_Z20Convolution2D_kernelPfS_'
GPGPU-Sim uArch: Shader 65 bind to kernel 1 '_Z20Convolution2D_kernelPfS_'
GPGPU-Sim uArch: Shader 66 bind to kernel 1 '_Z20Convolution2D_kernelPfS_'
GPGPU-Sim uArch: Shader 67 bind to kernel 1 '_Z20Convolution2D_kernelPfS_'
GPGPU-Sim uArch: Shader 68 bind to kernel 1 '_Z20Convolution2D_kernelPfS_'
GPGPU-Sim uArch: Shader 69 bind to kernel 1 '_Z20Convolution2D_kernelPfS_'
GPGPU-Sim uArch: Shader 70 bind to kernel 1 '_Z20Convolution2D_kernelPfS_'
GPGPU-Sim uArch: Shader 71 bind to kernel 1 '_Z20Convolution2D_kernelPfS_'
GPGPU-Sim uArch: Shader 72 bind to kernel 1 '_Z20Convolution2D_kernelPfS_'
GPGPU-Sim uArch: Shader 73 bind to kernel 1 '_Z20Convolution2D_kernelPfS_'
GPGPU-Sim uArch: Shader 74 bind to kernel 1 '_Z20Convolution2D_kernelPfS_'
GPGPU-Sim uArch: Shader 75 bind to kernel 1 '_Z20Convolution2D_kernelPfS_'
GPGPU-Sim uArch: Shader 76 bind to kernel 1 '_Z20Convolution2D_kernelPfS_'
GPGPU-Sim uArch: Shader 77 bind to kernel 1 '_Z20Convolution2D_kernelPfS_'
GPGPU-Sim uArch: Shader 78 bind to kernel 1 '_Z20Convolution2D_kernelPfS_'
GPGPU-Sim uArch: Shader 79 bind to kernel 1 '_Z20Convolution2D_kernelPfS_'
GPGPU-Sim uArch: Shader 0 bind to kernel 1 '_Z20Convolution2D_kernelPfS_'
GPGPU-Sim uArch: Shader 1 bind to kernel 1 '_Z20Convolution2D_kernelPfS_'
GPGPU-Sim uArch: Shader 2 bind to kernel 1 '_Z20Convolution2D_kernelPfS_'
GPGPU-Sim uArch: Shader 3 bind to kernel 1 '_Z20Convolution2D_kernelPfS_'
GPGPU-Sim uArch: Shader 4 bind to kernel 1 '_Z20Convolution2D_kernelPfS_'
GPGPU-Sim uArch: Shader 5 bind to kernel 1 '_Z20Convolution2D_kernelPfS_'
GPGPU-Sim uArch: Shader 6 bind to kernel 1 '_Z20Convolution2D_kernelPfS_'
GPGPU-Sim uArch: Shader 7 bind to kernel 1 '_Z20Convolution2D_kernelPfS_'
GPGPU-Sim uArch: Shader 8 bind to kernel 1 '_Z20Convolution2D_kernelPfS_'
GPGPU-Sim uArch: Shader 9 bind to kernel 1 '_Z20Convolution2D_kernelPfS_'
GPGPU-Sim uArch: Shader 10 bind to kernel 1 '_Z20Convolution2D_kernelPfS_'
GPGPU-Sim uArch: Shader 11 bind to kernel 1 '_Z20Convolution2D_kernelPfS_'
GPGPU-Sim uArch: Shader 12 bind to kernel 1 '_Z20Convolution2D_kernelPfS_'
GPGPU-Sim uArch: Shader 13 bind to kernel 1 '_Z20Convolution2D_kernelPfS_'
GPGPU-Sim uArch: Shader 14 bind to kernel 1 '_Z20Convolution2D_kernelPfS_'
GPGPU-Sim uArch: Shader 15 bind to kernel 1 '_Z20Convolution2D_kernelPfS_'
GPGPU-Sim uArch: Shader 16 bind to kernel 1 '_Z20Convolution2D_kernelPfS_'
GPGPU-Sim uArch: Shader 17 bind to kernel 1 '_Z20Convolution2D_kernelPfS_'
GPGPU-Sim uArch: Shader 18 bind to kernel 1 '_Z20Convolution2D_kernelPfS_'
GPGPU-Sim uArch: Shader 19 bind to kernel 1 '_Z20Convolution2D_kernelPfS_'
GPGPU-Sim uArch: Shader 20 bind to kernel 1 '_Z20Convolution2D_kernelPfS_'
GPGPU-Sim uArch: Shader 21 bind to kernel 1 '_Z20Convolution2D_kernelPfS_'
GPGPU-Sim uArch: Shader 22 bind to kernel 1 '_Z20Convolution2D_kernelPfS_'
GPGPU-Sim uArch: Shader 23 bind to kernel 1 '_Z20Convolution2D_kernelPfS_'
GPGPU-Sim uArch: Shader 24 bind to kernel 1 '_Z20Convolution2D_kernelPfS_'
GPGPU-Sim uArch: Shader 25 bind to kernel 1 '_Z20Convolution2D_kernelPfS_'
GPGPU-Sim uArch: Shader 26 bind to kernel 1 '_Z20Convolution2D_kernelPfS_'
GPGPU-Sim uArch: Shader 27 bind to kernel 1 '_Z20Convolution2D_kernelPfS_'
GPGPU-Sim uArch: Shader 28 bind to kernel 1 '_Z20Convolution2D_kernelPfS_'
GPGPU-Sim uArch: Shader 29 bind to kernel 1 '_Z20Convolution2D_kernelPfS_'
GPGPU-Sim uArch: Shader 30 bind to kernel 1 '_Z20Convolution2D_kernelPfS_'
GPGPU-Sim uArch: Shader 31 bind to kernel 1 '_Z20Convolution2D_kernelPfS_'
cycle: 1000000
GPGPU-Sim uArch: Shader 32 bind to kernel 1 '_Z20Convolution2D_kernelPfS_'
GPGPU-Sim uArch: Shader 33 bind to kernel 1 '_Z20Convolution2D_kernelPfS_'
GPGPU-Sim uArch: Shader 34 bind to kernel 1 '_Z20Convolution2D_kernelPfS_'
GPGPU-Sim uArch: Shader 35 bind to kernel 1 '_Z20Convolution2D_kernelPfS_'
GPGPU-Sim uArch: Shader 36 bind to kernel 1 '_Z20Convolution2D_kernelPfS_'
GPGPU-Sim uArch: Shader 37 bind to kernel 1 '_Z20Convolution2D_kernelPfS_'
GPGPU-Sim uArch: Shader 38 bind to kernel 1 '_Z20Convolution2D_kernelPfS_'
GPGPU-Sim uArch: Shader 39 bind to kernel 1 '_Z20Convolution2D_kernelPfS_'
GPGPU-Sim uArch: Shader 40 bind to kernel 1 '_Z20Convolution2D_kernelPfS_'
GPGPU-Sim uArch: Shader 41 bind to kernel 1 '_Z20Convolution2D_kernelPfS_'
GPGPU-Sim uArch: Shader 42 bind to kernel 1 '_Z20Convolution2D_kernelPfS_'
GPGPU-Sim uArch: Shader 43 bind to kernel 1 '_Z20Convolution2D_kernelPfS_'
GPGPU-Sim uArch: Shader 44 bind to kernel 1 '_Z20Convolution2D_kernelPfS_'
GPGPU-Sim uArch: Shader 45 bind to kernel 1 '_Z20Convolution2D_kernelPfS_'
GPGPU-Sim uArch: Shader 46 bind to kernel 1 '_Z20Convolution2D_kernelPfS_'
GPGPU-Sim uArch: Shader 47 bind to kernel 1 '_Z20Convolution2D_kernelPfS_'
GPGPU-Sim uArch: Shader 48 bind to kernel 1 '_Z20Convolution2D_kernelPfS_'
GPGPU-Sim uArch: Shader 49 bind to kernel 1 '_Z20Convolution2D_kernelPfS_'
GPGPU-Sim uArch: Shader 50 bind to kernel 1 '_Z20Convolution2D_kernelPfS_'
GPGPU-Sim uArch: Shader 51 bind to kernel 1 '_Z20Convolution2D_kernelPfS_'
GPGPU-Sim uArch: Shader 52 bind to kernel 1 '_Z20Convolution2D_kernelPfS_'
GPGPU-Sim uArch: Shader 53 bind to kernel 1 '_Z20Convolution2D_kernelPfS_'
GPGPU-Sim uArch: Shader 54 bind to kernel 1 '_Z20Convolution2D_kernelPfS_'
GPGPU-Sim uArch: Shader 55 bind to kernel 1 '_Z20Convolution2D_kernelPfS_'
GPGPU-Sim uArch: Shader 56 bind to kernel 1 '_Z20Convolution2D_kernelPfS_'
GPGPU-Sim uArch: Shader 57 bind to kernel 1 '_Z20Convolution2D_kernelPfS_'
GPGPU-Sim uArch: Shader 58 bind to kernel 1 '_Z20Convolution2D_kernelPfS_'
GPGPU-Sim uArch: Shader 59 bind to kernel 1 '_Z20Convolution2D_kernelPfS_'
GPGPU-Sim uArch: Shader 60 bind to kernel 1 '_Z20Convolution2D_kernelPfS_'
GPGPU-Sim uArch: Shader 61 bind to kernel 1 '_Z20Convolution2D_kernelPfS_'
GPGPU-Sim uArch: Shader 62 bind to kernel 1 '_Z20Convolution2D_kernelPfS_'
GPGPU-Sim uArch: Shader 63 bind to kernel 1 '_Z20Convolution2D_kernelPfS_'
GPGPU-Sim uArch: Shader 64 bind to kernel 1 '_Z20Convolution2D_kernelPfS_'
GPGPU-Sim uArch: Shader 65 bind to kernel 1 '_Z20Convolution2D_kernelPfS_'
GPGPU-Sim uArch: Shader 66 bind to kernel 1 '_Z20Convolution2D_kernelPfS_'
GPGPU-Sim uArch: Shader 67 bind to kernel 1 '_Z20Convolution2D_kernelPfS_'
GPGPU-Sim uArch: Shader 68 bind to kernel 1 '_Z20Convolution2D_kernelPfS_'
GPGPU-Sim uArch: Shader 69 bind to kernel 1 '_Z20Convolution2D_kernelPfS_'
GPGPU-Sim uArch: Shader 70 bind to kernel 1 '_Z20Convolution2D_kernelPfS_'
GPGPU-Sim uArch: Shader 71 bind to kernel 1 '_Z20Convolution2D_kernelPfS_'
GPGPU-Sim uArch: Shader 72 bind to kernel 1 '_Z20Convolution2D_kernelPfS_'
GPGPU-Sim uArch: Shader 73 bind to kernel 1 '_Z20Convolution2D_kernelPfS_'
GPGPU-Sim uArch: Shader 74 bind to kernel 1 '_Z20Convolution2D_kernelPfS_'
GPGPU-Sim uArch: Shader 75 bind to kernel 1 '_Z20Convolution2D_kernelPfS_'
GPGPU-Sim uArch: Shader 76 bind to kernel 1 '_Z20Convolution2D_kernelPfS_'
GPGPU-Sim uArch: Shader 77 bind to kernel 1 '_Z20Convolution2D_kernelPfS_'
GPGPU-Sim uArch: Shader 78 bind to kernel 1 '_Z20Convolution2D_kernelPfS_'
GPGPU-Sim uArch: Shader 79 bind to kernel 1 '_Z20Convolution2D_kernelPfS_'
GPGPU-Sim uArch: Shader 0 bind to kernel 1 '_Z20Convolution2D_kernelPfS_'
GPGPU-Sim uArch: Shader 1 bind to kernel 1 '_Z20Convolution2D_kernelPfS_'
GPGPU-Sim uArch: Shader 2 bind to kernel 1 '_Z20Convolution2D_kernelPfS_'
GPGPU-Sim uArch: Shader 3 bind to kernel 1 '_Z20Convolution2D_kernelPfS_'
GPGPU-Sim uArch: Shader 4 bind to kernel 1 '_Z20Convolution2D_kernelPfS_'
GPGPU-Sim uArch: Shader 5 bind to kernel 1 '_Z20Convolution2D_kernelPfS_'
GPGPU-Sim uArch: Shader 6 bind to kernel 1 '_Z20Convolution2D_kernelPfS_'
GPGPU-Sim uArch: Shader 7 bind to kernel 1 '_Z20Convolution2D_kernelPfS_'
GPGPU-Sim uArch: Shader 8 bind to kernel 1 '_Z20Convolution2D_kernelPfS_'
GPGPU-Sim uArch: Shader 9 bind to kernel 1 '_Z20Convolution2D_kernelPfS_'
GPGPU-Sim uArch: Shader 10 bind to kernel 1 '_Z20Convolution2D_kernelPfS_'
GPGPU-Sim uArch: Shader 11 bind to kernel 1 '_Z20Convolution2D_kernelPfS_'
GPGPU-Sim uArch: Shader 12 bind to kernel 1 '_Z20Convolution2D_kernelPfS_'
GPGPU-Sim uArch: Shader 13 bind to kernel 1 '_Z20Convolution2D_kernelPfS_'
GPGPU-Sim uArch: Shader 14 bind to kernel 1 '_Z20Convolution2D_kernelPfS_'
GPGPU-Sim uArch: Shader 15 bind to kernel 1 '_Z20Convolution2D_kernelPfS_'
GPGPU-Sim uArch: Shader 16 bind to kernel 1 '_Z20Convolution2D_kernelPfS_'
GPGPU-Sim uArch: Shader 17 bind to kernel 1 '_Z20Convolution2D_kernelPfS_'
GPGPU-Sim uArch: Shader 18 bind to kernel 1 '_Z20Convolution2D_kernelPfS_'
GPGPU-Sim uArch: Shader 19 bind to kernel 1 '_Z20Convolution2D_kernelPfS_'
GPGPU-Sim uArch: Shader 20 bind to kernel 1 '_Z20Convolution2D_kernelPfS_'
GPGPU-Sim uArch: Shader 21 bind to kernel 1 '_Z20Convolution2D_kernelPfS_'
GPGPU-Sim uArch: Shader 22 bind to kernel 1 '_Z20Convolution2D_kernelPfS_'
GPGPU-Sim uArch: Shader 23 bind to kernel 1 '_Z20Convolution2D_kernelPfS_'
GPGPU-Sim uArch: Shader 24 bind to kernel 1 '_Z20Convolution2D_kernelPfS_'
GPGPU-Sim uArch: Shader 25 bind to kernel 1 '_Z20Convolution2D_kernelPfS_'
GPGPU-Sim uArch: Shader 26 bind to kernel 1 '_Z20Convolution2D_kernelPfS_'
GPGPU-Sim uArch: Shader 27 bind to kernel 1 '_Z20Convolution2D_kernelPfS_'
GPGPU-Sim uArch: Shader 28 bind to kernel 1 '_Z20Convolution2D_kernelPfS_'
GPGPU-Sim uArch: Shader 29 bind to kernel 1 '_Z20Convolution2D_kernelPfS_'
GPGPU-Sim uArch: Shader 30 bind to kernel 1 '_Z20Convolution2D_kernelPfS_'
GPGPU-Sim uArch: Shader 31 bind to kernel 1 '_Z20Convolution2D_kernelPfS_'
GPGPU-Sim uArch: Shader 32 bind to kernel 1 '_Z20Convolution2D_kernelPfS_'
GPGPU-Sim uArch: Shader 33 bind to kernel 1 '_Z20Convolution2D_kernelPfS_'
GPGPU-Sim uArch: Shader 34 bind to kernel 1 '_Z20Convolution2D_kernelPfS_'
GPGPU-Sim uArch: Shader 35 bind to kernel 1 '_Z20Convolution2D_kernelPfS_'
GPGPU-Sim uArch: Shader 36 bind to kernel 1 '_Z20Convolution2D_kernelPfS_'
GPGPU-Sim uArch: Shader 37 bind to kernel 1 '_Z20Convolution2D_kernelPfS_'
GPGPU-Sim uArch: Shader 38 bind to kernel 1 '_Z20Convolution2D_kernelPfS_'
GPGPU-Sim uArch: Shader 39 bind to kernel 1 '_Z20Convolution2D_kernelPfS_'
GPGPU-Sim uArch: Shader 40 bind to kernel 1 '_Z20Convolution2D_kernelPfS_'
GPGPU-Sim uArch: Shader 41 bind to kernel 1 '_Z20Convolution2D_kernelPfS_'
GPGPU-Sim uArch: Shader 42 bind to kernel 1 '_Z20Convolution2D_kernelPfS_'
GPGPU-Sim uArch: Shader 43 bind to kernel 1 '_Z20Convolution2D_kernelPfS_'
GPGPU-Sim uArch: Shader 44 bind to kernel 1 '_Z20Convolution2D_kernelPfS_'
GPGPU-Sim uArch: Shader 45 bind to kernel 1 '_Z20Convolution2D_kernelPfS_'
GPGPU-Sim uArch: Shader 46 bind to kernel 1 '_Z20Convolution2D_kernelPfS_'
GPGPU-Sim uArch: Shader 47 bind to kernel 1 '_Z20Convolution2D_kernelPfS_'
Destroy streams for kernel 1: size 0
kernel_name = _Z20Convolution2D_kernelPfS_ 
kernel_launch_uid = 1 
gpu_sim_cycle = 1628011
gpu_sim_insn = 47071344
gpu_ipc =      28.9134
gpu_tot_sim_cycle = 1633011
gpu_tot_sim_insn = 47071344
gpu_tot_ipc =      28.8249
gpu_tot_issued_cta = 4096
gpu_occupancy = 93.1576% 
gpu_tot_occupancy = 93.1576% 
max_total_param_size = 0
gpu_stall_dramfull = 0
gpu_stall_icnt2sh    = 0
partiton_reqs_in_parallel = 373636
partiton_reqs_in_parallel_total    = 0
partiton_level_parallism =       0.2295
partiton_level_parallism_total  =       0.2288
partiton_reqs_in_parallel_util = 373636
partiton_reqs_in_parallel_util_total    = 0
gpu_sim_cycle_parition_util = 28081
gpu_tot_sim_cycle_parition_util    = 0
partiton_level_parallism_util =      13.3057
partiton_level_parallism_util_total  =      13.3057
L2_BW  =       6.6171 GB/Sec
L2_BW_total  =       6.5968 GB/Sec
gpu_total_sim_rate=5436

========= Core cache stats =========
L1I_cache:
	L1I_total_cache_accesses = 0
	L1I_total_cache_misses = 0
	L1I_total_cache_pending_hits = 0
	L1I_total_cache_reservation_fails = 0
L1D_cache:
	L1D_cache_core[0]: Access = 18423, Miss = 4505, Miss_rate = 0.245, Pending_hits = 3947, Reservation_fails = 0
	L1D_cache_core[1]: Access = 19044, Miss = 4764, Miss_rate = 0.250, Pending_hits = 4164, Reservation_fails = 0
	L1D_cache_core[2]: Access = 19044, Miss = 4764, Miss_rate = 0.250, Pending_hits = 4164, Reservation_fails = 0
	L1D_cache_core[3]: Access = 19044, Miss = 4764, Miss_rate = 0.250, Pending_hits = 4164, Reservation_fails = 0
	L1D_cache_core[4]: Access = 19044, Miss = 4764, Miss_rate = 0.250, Pending_hits = 4164, Reservation_fails = 0
	L1D_cache_core[5]: Access = 19044, Miss = 4764, Miss_rate = 0.250, Pending_hits = 4164, Reservation_fails = 0
	L1D_cache_core[6]: Access = 19044, Miss = 4764, Miss_rate = 0.250, Pending_hits = 4164, Reservation_fails = 0
	L1D_cache_core[7]: Access = 19044, Miss = 4764, Miss_rate = 0.250, Pending_hits = 4164, Reservation_fails = 0
	L1D_cache_core[8]: Access = 19044, Miss = 4764, Miss_rate = 0.250, Pending_hits = 4164, Reservation_fails = 0
	L1D_cache_core[9]: Access = 19044, Miss = 4764, Miss_rate = 0.250, Pending_hits = 4164, Reservation_fails = 0
	L1D_cache_core[10]: Access = 19044, Miss = 4764, Miss_rate = 0.250, Pending_hits = 4164, Reservation_fails = 0
	L1D_cache_core[11]: Access = 19044, Miss = 4764, Miss_rate = 0.250, Pending_hits = 4164, Reservation_fails = 0
	L1D_cache_core[12]: Access = 19044, Miss = 4764, Miss_rate = 0.250, Pending_hits = 4164, Reservation_fails = 0
	L1D_cache_core[13]: Access = 19044, Miss = 4764, Miss_rate = 0.250, Pending_hits = 4164, Reservation_fails = 0
	L1D_cache_core[14]: Access = 19044, Miss = 4764, Miss_rate = 0.250, Pending_hits = 4164, Reservation_fails = 0
	L1D_cache_core[15]: Access = 18423, Miss = 4505, Miss_rate = 0.245, Pending_hits = 3963, Reservation_fails = 0
	L1D_cache_core[16]: Access = 18122, Miss = 4432, Miss_rate = 0.245, Pending_hits = 3945, Reservation_fails = 0
	L1D_cache_core[17]: Access = 18722, Miss = 4682, Miss_rate = 0.250, Pending_hits = 4148, Reservation_fails = 0
	L1D_cache_core[18]: Access = 18722, Miss = 4682, Miss_rate = 0.250, Pending_hits = 4148, Reservation_fails = 0
	L1D_cache_core[19]: Access = 18722, Miss = 4682, Miss_rate = 0.250, Pending_hits = 4148, Reservation_fails = 0
	L1D_cache_core[20]: Access = 18722, Miss = 4682, Miss_rate = 0.250, Pending_hits = 4148, Reservation_fails = 0
	L1D_cache_core[21]: Access = 18722, Miss = 4682, Miss_rate = 0.250, Pending_hits = 4148, Reservation_fails = 0
	L1D_cache_core[22]: Access = 18722, Miss = 4682, Miss_rate = 0.250, Pending_hits = 4148, Reservation_fails = 0
	L1D_cache_core[23]: Access = 18722, Miss = 4682, Miss_rate = 0.250, Pending_hits = 4148, Reservation_fails = 0
	L1D_cache_core[24]: Access = 18722, Miss = 4682, Miss_rate = 0.250, Pending_hits = 4148, Reservation_fails = 0
	L1D_cache_core[25]: Access = 18722, Miss = 4682, Miss_rate = 0.250, Pending_hits = 4148, Reservation_fails = 0
	L1D_cache_core[26]: Access = 18722, Miss = 4682, Miss_rate = 0.250, Pending_hits = 4148, Reservation_fails = 0
	L1D_cache_core[27]: Access = 18722, Miss = 4682, Miss_rate = 0.250, Pending_hits = 4148, Reservation_fails = 0
	L1D_cache_core[28]: Access = 18722, Miss = 4682, Miss_rate = 0.250, Pending_hits = 4148, Reservation_fails = 0
	L1D_cache_core[29]: Access = 18722, Miss = 4682, Miss_rate = 0.250, Pending_hits = 4148, Reservation_fails = 0
	L1D_cache_core[30]: Access = 18722, Miss = 4682, Miss_rate = 0.250, Pending_hits = 4148, Reservation_fails = 0
	L1D_cache_core[31]: Access = 18101, Miss = 4423, Miss_rate = 0.244, Pending_hits = 3931, Reservation_fails = 0
	L1D_cache_core[32]: Access = 18144, Miss = 4432, Miss_rate = 0.244, Pending_hits = 3875, Reservation_fails = 0
	L1D_cache_core[33]: Access = 18768, Miss = 4692, Miss_rate = 0.250, Pending_hits = 4080, Reservation_fails = 0
	L1D_cache_core[34]: Access = 18768, Miss = 4692, Miss_rate = 0.250, Pending_hits = 4080, Reservation_fails = 0
	L1D_cache_core[35]: Access = 18768, Miss = 4692, Miss_rate = 0.250, Pending_hits = 4080, Reservation_fails = 0
	L1D_cache_core[36]: Access = 18768, Miss = 4692, Miss_rate = 0.250, Pending_hits = 4080, Reservation_fails = 0
	L1D_cache_core[37]: Access = 18768, Miss = 4692, Miss_rate = 0.250, Pending_hits = 4080, Reservation_fails = 0
	L1D_cache_core[38]: Access = 18768, Miss = 4692, Miss_rate = 0.250, Pending_hits = 4080, Reservation_fails = 0
	L1D_cache_core[39]: Access = 18768, Miss = 4692, Miss_rate = 0.250, Pending_hits = 4080, Reservation_fails = 0
	L1D_cache_core[40]: Access = 18768, Miss = 4692, Miss_rate = 0.250, Pending_hits = 4080, Reservation_fails = 0
	L1D_cache_core[41]: Access = 18768, Miss = 4692, Miss_rate = 0.250, Pending_hits = 4080, Reservation_fails = 0
	L1D_cache_core[42]: Access = 18768, Miss = 4692, Miss_rate = 0.250, Pending_hits = 4080, Reservation_fails = 0
	L1D_cache_core[43]: Access = 18768, Miss = 4692, Miss_rate = 0.250, Pending_hits = 4080, Reservation_fails = 0
	L1D_cache_core[44]: Access = 18768, Miss = 4692, Miss_rate = 0.250, Pending_hits = 4080, Reservation_fails = 0
	L1D_cache_core[45]: Access = 18768, Miss = 4692, Miss_rate = 0.250, Pending_hits = 4080, Reservation_fails = 0
	L1D_cache_core[46]: Access = 18768, Miss = 4692, Miss_rate = 0.250, Pending_hits = 4080, Reservation_fails = 0
	L1D_cache_core[47]: Access = 18168, Miss = 4442, Miss_rate = 0.244, Pending_hits = 3877, Reservation_fails = 0
	L1D_cache_core[48]: Access = 18168, Miss = 4442, Miss_rate = 0.244, Pending_hits = 3882, Reservation_fails = 0
	L1D_cache_core[49]: Access = 18768, Miss = 4692, Miss_rate = 0.250, Pending_hits = 4086, Reservation_fails = 0
	L1D_cache_core[50]: Access = 18768, Miss = 4692, Miss_rate = 0.250, Pending_hits = 4086, Reservation_fails = 0
	L1D_cache_core[51]: Access = 18768, Miss = 4692, Miss_rate = 0.250, Pending_hits = 4086, Reservation_fails = 0
	L1D_cache_core[52]: Access = 18768, Miss = 4692, Miss_rate = 0.250, Pending_hits = 4086, Reservation_fails = 0
	L1D_cache_core[53]: Access = 18768, Miss = 4692, Miss_rate = 0.250, Pending_hits = 4086, Reservation_fails = 0
	L1D_cache_core[54]: Access = 18768, Miss = 4692, Miss_rate = 0.250, Pending_hits = 4086, Reservation_fails = 0
	L1D_cache_core[55]: Access = 18768, Miss = 4692, Miss_rate = 0.250, Pending_hits = 4086, Reservation_fails = 0
	L1D_cache_core[56]: Access = 18768, Miss = 4692, Miss_rate = 0.250, Pending_hits = 4086, Reservation_fails = 0
	L1D_cache_core[57]: Access = 18768, Miss = 4692, Miss_rate = 0.250, Pending_hits = 4086, Reservation_fails = 0
	L1D_cache_core[58]: Access = 18768, Miss = 4692, Miss_rate = 0.250, Pending_hits = 4086, Reservation_fails = 0
	L1D_cache_core[59]: Access = 18768, Miss = 4692, Miss_rate = 0.250, Pending_hits = 4086, Reservation_fails = 0
	L1D_cache_core[60]: Access = 18768, Miss = 4692, Miss_rate = 0.250, Pending_hits = 4086, Reservation_fails = 0
	L1D_cache_core[61]: Access = 18768, Miss = 4692, Miss_rate = 0.250, Pending_hits = 4086, Reservation_fails = 0
	L1D_cache_core[62]: Access = 18768, Miss = 4692, Miss_rate = 0.250, Pending_hits = 4086, Reservation_fails = 0
	L1D_cache_core[63]: Access = 18144, Miss = 4432, Miss_rate = 0.244, Pending_hits = 3881, Reservation_fails = 0
	L1D_cache_core[64]: Access = 18101, Miss = 4423, Miss_rate = 0.244, Pending_hits = 3857, Reservation_fails = 0
	L1D_cache_core[65]: Access = 18722, Miss = 4682, Miss_rate = 0.250, Pending_hits = 4058, Reservation_fails = 0
	L1D_cache_core[66]: Access = 18722, Miss = 4682, Miss_rate = 0.250, Pending_hits = 4058, Reservation_fails = 0
	L1D_cache_core[67]: Access = 18722, Miss = 4682, Miss_rate = 0.250, Pending_hits = 4058, Reservation_fails = 0
	L1D_cache_core[68]: Access = 18722, Miss = 4682, Miss_rate = 0.250, Pending_hits = 4058, Reservation_fails = 0
	L1D_cache_core[69]: Access = 18722, Miss = 4682, Miss_rate = 0.250, Pending_hits = 4058, Reservation_fails = 0
	L1D_cache_core[70]: Access = 18722, Miss = 4682, Miss_rate = 0.250, Pending_hits = 4058, Reservation_fails = 0
	L1D_cache_core[71]: Access = 18722, Miss = 4682, Miss_rate = 0.250, Pending_hits = 4058, Reservation_fails = 0
	L1D_cache_core[72]: Access = 18722, Miss = 4682, Miss_rate = 0.250, Pending_hits = 4058, Reservation_fails = 0
	L1D_cache_core[73]: Access = 18722, Miss = 4682, Miss_rate = 0.250, Pending_hits = 4058, Reservation_fails = 0
	L1D_cache_core[74]: Access = 18722, Miss = 4682, Miss_rate = 0.250, Pending_hits = 4058, Reservation_fails = 0
	L1D_cache_core[75]: Access = 18722, Miss = 4682, Miss_rate = 0.250, Pending_hits = 4058, Reservation_fails = 0
	L1D_cache_core[76]: Access = 18722, Miss = 4682, Miss_rate = 0.250, Pending_hits = 4058, Reservation_fails = 0
	L1D_cache_core[77]: Access = 18722, Miss = 4682, Miss_rate = 0.250, Pending_hits = 4058, Reservation_fails = 0
	L1D_cache_core[78]: Access = 18722, Miss = 4682, Miss_rate = 0.250, Pending_hits = 4058, Reservation_fails = 0
	L1D_cache_core[79]: Access = 18122, Miss = 4432, Miss_rate = 0.245, Pending_hits = 3854, Reservation_fails = 0
	L1D_total_cache_accesses = 1498252
	L1D_total_cache_misses = 373636
	L1D_total_cache_miss_rate = 0.2494
	L1D_total_cache_pending_hits = 326516
	L1D_total_cache_reservation_fails = 0
	L1D_cache_data_port_util = 0.006
	L1D_cache_fill_port_util = 0.002
L1C_cache:
	L1C_total_cache_accesses = 0
	L1C_total_cache_misses = 0
	L1C_total_cache_pending_hits = 0
	L1C_total_cache_reservation_fails = 0
L1T_cache:
	L1T_total_cache_accesses = 0
	L1T_total_cache_misses = 0
	L1T_total_cache_pending_hits = 0
	L1T_total_cache_reservation_fails = 0

Total_core_cache_stats:
	Total_core_cache_stats_breakdown[GLOBAL_ACC_R][HIT] = 798100
	Total_core_cache_stats_breakdown[GLOBAL_ACC_R][HIT_RESERVED] = 326516
	Total_core_cache_stats_breakdown[GLOBAL_ACC_R][MISS] = 120132
	Total_core_cache_stats_breakdown[GLOBAL_ACC_R][RESERVATION_FAIL] = 0
	Total_core_cache_stats_breakdown[GLOBAL_ACC_R][SECTOR_MISS] = 122688
	Total_core_cache_stats_breakdown[GLOBAL_ACC_R][MSHR_HIT] = 326516
	Total_core_cache_stats_breakdown[LOCAL_ACC_R][HIT] = 0
	Total_core_cache_stats_breakdown[LOCAL_ACC_R][HIT_RESERVED] = 0
	Total_core_cache_stats_breakdown[LOCAL_ACC_R][MISS] = 0
	Total_core_cache_stats_breakdown[LOCAL_ACC_R][RESERVATION_FAIL] = 0
	Total_core_cache_stats_breakdown[LOCAL_ACC_R][SECTOR_MISS] = 0
	Total_core_cache_stats_breakdown[LOCAL_ACC_R][MSHR_HIT] = 0
	Total_core_cache_stats_breakdown[CONST_ACC_R][HIT] = 0
	Total_core_cache_stats_breakdown[CONST_ACC_R][HIT_RESERVED] = 0
	Total_core_cache_stats_breakdown[CONST_ACC_R][MISS] = 0
	Total_core_cache_stats_breakdown[CONST_ACC_R][RESERVATION_FAIL] = 0
	Total_core_cache_stats_breakdown[CONST_ACC_R][SECTOR_MISS] = 0
	Total_core_cache_stats_breakdown[CONST_ACC_R][MSHR_HIT] = 0
	Total_core_cache_stats_breakdown[TEXTURE_ACC_R][HIT] = 0
	Total_core_cache_stats_breakdown[TEXTURE_ACC_R][HIT_RESERVED] = 0
	Total_core_cache_stats_breakdown[TEXTURE_ACC_R][MISS] = 0
	Total_core_cache_stats_breakdown[TEXTURE_ACC_R][RESERVATION_FAIL] = 0
	Total_core_cache_stats_breakdown[TEXTURE_ACC_R][SECTOR_MISS] = 0
	Total_core_cache_stats_breakdown[TEXTURE_ACC_R][MSHR_HIT] = 0
	Total_core_cache_stats_breakdown[GLOBAL_ACC_W][HIT] = 0
	Total_core_cache_stats_breakdown[GLOBAL_ACC_W][HIT_RESERVED] = 0
	Total_core_cache_stats_breakdown[GLOBAL_ACC_W][MISS] = 32704
	Total_core_cache_stats_breakdown[GLOBAL_ACC_W][RESERVATION_FAIL] = 0
	Total_core_cache_stats_breakdown[GLOBAL_ACC_W][SECTOR_MISS] = 98112
	Total_core_cache_stats_breakdown[GLOBAL_ACC_W][MSHR_HIT] = 0
	Total_core_cache_stats_breakdown[LOCAL_ACC_W][HIT] = 0
	Total_core_cache_stats_breakdown[LOCAL_ACC_W][HIT_RESERVED] = 0
	Total_core_cache_stats_breakdown[LOCAL_ACC_W][MISS] = 0
	Total_core_cache_stats_breakdown[LOCAL_ACC_W][RESERVATION_FAIL] = 0
	Total_core_cache_stats_breakdown[LOCAL_ACC_W][SECTOR_MISS] = 0
	Total_core_cache_stats_breakdown[LOCAL_ACC_W][MSHR_HIT] = 0
	Total_core_cache_stats_breakdown[L1_WRBK_ACC][HIT] = 0
	Total_core_cache_stats_breakdown[L1_WRBK_ACC][HIT_RESERVED] = 0
	Total_core_cache_stats_breakdown[L1_WRBK_ACC][MISS] = 0
	Total_core_cache_stats_breakdown[L1_WRBK_ACC][RESERVATION_FAIL] = 0
	Total_core_cache_stats_breakdown[L1_WRBK_ACC][SECTOR_MISS] = 0
	Total_core_cache_stats_breakdown[L1_WRBK_ACC][MSHR_HIT] = 0
	Total_core_cache_stats_breakdown[L2_WRBK_ACC][HIT] = 0
	Total_core_cache_stats_breakdown[L2_WRBK_ACC][HIT_RESERVED] = 0
	Total_core_cache_stats_breakdown[L2_WRBK_ACC][MISS] = 0
	Total_core_cache_stats_breakdown[L2_WRBK_ACC][RESERVATION_FAIL] = 0
	Total_core_cache_stats_breakdown[L2_WRBK_ACC][SECTOR_MISS] = 0
	Total_core_cache_stats_breakdown[L2_WRBK_ACC][MSHR_HIT] = 0
	Total_core_cache_stats_breakdown[INST_ACC_R][HIT] = 0
	Total_core_cache_stats_breakdown[INST_ACC_R][HIT_RESERVED] = 0
	Total_core_cache_stats_breakdown[INST_ACC_R][MISS] = 0
	Total_core_cache_stats_breakdown[INST_ACC_R][RESERVATION_FAIL] = 0
	Total_core_cache_stats_breakdown[INST_ACC_R][SECTOR_MISS] = 0
	Total_core_cache_stats_breakdown[INST_ACC_R][MSHR_HIT] = 0
	Total_core_cache_stats_breakdown[L1_WR_ALLOC_R][HIT] = 0
	Total_core_cache_stats_breakdown[L1_WR_ALLOC_R][HIT_RESERVED] = 0
	Total_core_cache_stats_breakdown[L1_WR_ALLOC_R][MISS] = 0
	Total_core_cache_stats_breakdown[L1_WR_ALLOC_R][RESERVATION_FAIL] = 0
	Total_core_cache_stats_breakdown[L1_WR_ALLOC_R][SECTOR_MISS] = 0
	Total_core_cache_stats_breakdown[L1_WR_ALLOC_R][MSHR_HIT] = 0
	Total_core_cache_stats_breakdown[L2_WR_ALLOC_R][HIT] = 0
	Total_core_cache_stats_breakdown[L2_WR_ALLOC_R][HIT_RESERVED] = 0
	Total_core_cache_stats_breakdown[L2_WR_ALLOC_R][MISS] = 0
	Total_core_cache_stats_breakdown[L2_WR_ALLOC_R][RESERVATION_FAIL] = 0
	Total_core_cache_stats_breakdown[L2_WR_ALLOC_R][SECTOR_MISS] = 0
	Total_core_cache_stats_breakdown[L2_WR_ALLOC_R][MSHR_HIT] = 0
	Total_core_cache_stats_breakdown[GLOBAL_ACC_R][TOTAL_ACCESS] = 1367436
	Total_core_cache_stats_breakdown[GLOBAL_ACC_W][TOTAL_ACCESS] = 130816

Total_core_cache_fail_stats:
ctas_completed 4096, Shader 0 warp_id issue ditsribution:
warp_id:
0, 1, 2, 3, 4, 5, 6, 7, 8, 9, 10, 11, 12, 13, 14, 15, 16, 17, 18, 19, 20, 21, 22, 23, 24, 25, 26, 27, 28, 29, 30, 31, 32, 33, 34, 35, 36, 37, 38, 39, 40, 41, 42, 43, 44, 45, 46, 47, 48, 49, 50, 51, 52, 53, 54, 55, 56, 57, 58, 59, 60, 61, 62, 63, 
distro:
293, 322, 322, 322, 322, 322, 322, 322, 322, 322, 322, 322, 322, 322, 322, 322, 322, 322, 322, 322, 322, 322, 322, 322, 322, 322, 322, 322, 322, 322, 322, 322, 322, 322, 322, 322, 322, 322, 322, 322, 322, 322, 322, 322, 322, 322, 322, 293, 276, 276, 276, 276, 276, 276, 276, 276, 184, 184, 184, 184, 184, 184, 184, 184, 
gpgpu_n_tot_thrd_icount = 48175104
gpgpu_n_tot_w_icount = 1505472
gpgpu_n_stall_shd_mem = 607884
gpgpu_n_mem_read_local = 0
gpgpu_n_mem_write_local = 0
gpgpu_n_mem_read_global = 242820
gpgpu_n_mem_write_global = 130816
gpgpu_n_mem_texture = 0
gpgpu_n_mem_const = 0
gpgpu_n_load_insn  = 9400356
gpgpu_n_store_insn = 1044484
gpgpu_n_shmem_insn = 0
gpgpu_n_sstarr_insn = 0
gpgpu_n_tex_insn = 0
gpgpu_n_const_mem_insn = 0
gpgpu_n_param_mem_insn = 2097152
gpgpu_n_shmem_bkconflict = 0
gpgpu_n_cache_bkconflict = 0
gpgpu_n_intrawarp_mshr_merge = 0
gpgpu_n_cmem_portconflict = 0
gpgpu_stall_shd_mem[c_mem][resource_stall] = 0
gpgpu_stall_shd_mem[s_mem][bk_conf] = 0
gpgpu_stall_shd_mem[gl_mem][resource_stall] = 0
gpgpu_stall_shd_mem[gl_mem][coal_stall] = 607884
gpgpu_stall_shd_mem[gl_mem][data_port_stall] = 0
gpu_reg_bank_conflict_stalls = 0
Warp Occupancy Distribution:
Stall:697536	W0_Idle:217654164	W0_Scoreboard:299271724	W1:0	W2:0	W3:0	W4:0	W5:0	W6:0	W7:0	W8:0	W9:0	W10:0	W11:0	W12:0	W13:0	W14:0	W15:0	W16:0	W17:0	W18:0	W19:0	W20:0	W21:0	W22:0	W23:0	W24:0	W25:0	W26:0	W27:0	W28:0	W29:0	W30:0	W31:59276	W32:1446196
single_issue_nums: WS0:375904	WS1:376832	WS2:376832	WS3:375904	
dual_issue_nums: WS0:0	WS1:0	WS2:0	WS3:0	
traffic_breakdown_coretomem[GLOBAL_ACC_R] = 1942560 {8:242820,}
traffic_breakdown_coretomem[GLOBAL_ACC_W] = 5232640 {40:130816,}
traffic_breakdown_memtocore[GLOBAL_ACC_R] = 9712800 {40:242820,}
traffic_breakdown_memtocore[GLOBAL_ACC_W] = 1046528 {8:130816,}
maxmflatency = 125610 
max_icnt2mem_latency = 125486 
maxmrqlatency = 0 
max_icnt2sh_latency = 3 
averagemflatency = 64782 
avg_icnt2mem_latency = 64658 
avg_icnt2sh_latency = 2 
mrq_lat_table:0 	0 	0 	0 	0 	0 	0 	0 	0 	0 	0 	0 	0 	0 	0 	0 	0 	0 	0 	0 	0 	0 	0 	0 	0 	0 	0 	0 	0 	0 	0 	0 	
dq_lat_table:0 	0 	0 	0 	0 	0 	0 	0 	0 	0 	0 	0 	0 	0 	0 	0 	0 	0 	0 	0 	0 	0 	0 	0 	0 	0 	0 	0 	0 	0 	0 	0 	
mf_lat_table:0 	0 	0 	0 	0 	0 	0 	67662 	576 	2353 	2615 	6111 	9665 	15074 	23532 	45866 	200182 	0 	0 	0 	0 	0 	0 	0 	0 	0 	0 	0 	0 	0 	0 	0 	
icnt2mem_lat_table:0 	0 	0 	0 	39618 	0 	27946 	674 	1386 	1100 	2482 	6898 	8878 	15228 	23378 	46739 	199309 	0 	0 	0 	0 	0 	0 	0 	
icnt2sh_lat_table:0 	373636 	0 	0 	0 	0 	0 	0 	0 	0 	0 	0 	0 	0 	0 	0 	0 	0 	0 	0 	0 	0 	0 	0 	
mf_lat_pw_table:0 	0 	0 	0 	0 	0 	0 	370 	0 	7 	10 	27 	63 	96 	208 	341 	1327 	0 	0 	0 	0 	0 	0 	0 	0 	0 	0 	0 	0 	0 	0 	0 	
maximum concurrent accesses to same row:
[...]
F:  1463586----T:  1464378 	 St: c0793000 Sz: 4096 	 Sm: 0 	 T: memcpy_h2d(0.879023)
F:  1464378----T:  1465170 	 St: c0794000 Sz: 4096 	 Sm: 0 	 T: memcpy_h2d(0.879023)
F:  1465170----T:  1465962 	 St: c0397000 Sz: 4096 	 Sm: 0 	 T: memcpy_h2d(0.879023)
F:  1465962----T:  1466754 	 St: c0795000 Sz: 4096 	 Sm: 0 	 T: memcpy_h2d(0.879023)
F:  1466754----T:  1467546 	 St: c0796000 Sz: 4096 	 Sm: 0 	 T: memcpy_h2d(0.879023)
F:  1467546----T:  1468338 	 St: c0398000 Sz: 4096 	 Sm: 0 	 T: memcpy_h2d(0.879023)
F:  1468638----T:  1469430 	 St: c0797000 Sz: 4096 	 Sm: 0 	 T: memcpy_h2d(0.879023)
F:  1469430----T:  1470222 	 St: c03a1000 Sz: 4096 	 Sm: 0 	 T: memcpy_h2d(0.879023)
F:  1470222----T:  1471014 	 St: c03a9000 Sz: 4096 	 Sm: 0 	 T: memcpy_h2d(0.879023)
F:  1471014----T:  1471806 	 St: c0399000 Sz: 4096 	 Sm: 0 	 T: memcpy_h2d(0.879023)
F:  1471806----T:  1472598 	 St: c03a8000 Sz: 4096 	 Sm: 0 	 T: memcpy_h2d(0.879023)
F:  1472598----T:  1473390 	 St: c03a0000 Sz: 4096 	 Sm: 0 	 T: memcpy_h2d(0.879023)
F:  1473390----T:  1474182 	 St: c039f000 Sz: 4096 	 Sm: 0 	 T: memcpy_h2d(0.879023)
F:  1474182----T:  1474974 	 St: c03a7000 Sz: 4096 	 Sm: 0 	 T: memcpy_h2d(0.879023)
F:  1474974----T:  1475766 	 St: c03ae000 Sz: 4096 	 Sm: 0 	 T: memcpy_h2d(0.879023)
F:  1475766----T:  1476558 	 St: c03a6000 Sz: 4096 	 Sm: 0 	 T: memcpy_h2d(0.879023)
F:  1476558----T:  1477350 	 St: c03a5000 Sz: 4096 	 Sm: 0 	 T: memcpy_h2d(0.879023)
F:  1477350----T:  1478142 	 St: c03ad000 Sz: 4096 	 Sm: 0 	 T: memcpy_h2d(0.879023)
F:  1478142----T:  1478934 	 St: c03a2000 Sz: 4096 	 Sm: 0 	 T: memcpy_h2d(0.879023)
F:  1478934----T:  1479726 	 St: c039a000 Sz: 4096 	 Sm: 0 	 T: memcpy_h2d(0.879023)
F:  1479726----T:  1480518 	 St: c03aa000 Sz: 4096 	 Sm: 0 	 T: memcpy_h2d(0.879023)
F:  1480518----T:  1481310 	 St: c039b000 Sz: 4096 	 Sm: 0 	 T: memcpy_h2d(0.879023)
F:  1481310----T:  1482102 	 St: c039e000 Sz: 4096 	 Sm: 0 	 T: memcpy_h2d(0.879023)
F:  1482102----T:  1482894 	 St: c03ab000 Sz: 4096 	 Sm: 0 	 T: memcpy_h2d(0.879023)
F:  1482894----T:  1483686 	 St: c03a3000 Sz: 4096 	 Sm: 0 	 T: memcpy_h2d(0.879023)
F:  1483686----T:  1484478 	 St: c03a4000 Sz: 4096 	 Sm: 0 	 T: memcpy_h2d(0.879023)
F:  1484478----T:  1485270 	 St: c03ac000 Sz: 4096 	 Sm: 0 	 T: memcpy_h2d(0.879023)
F:  1485270----T:  1486062 	 St: c039c000 Sz: 4096 	 Sm: 0 	 T: memcpy_h2d(0.879023)
F:  1486062----T:  1486854 	 St: c039d000 Sz: 4096 	 Sm: 0 	 T: memcpy_h2d(0.879023)
F:  1486854----T:  1487646 	 St: c03b2000 Sz: 4096 	 Sm: 0 	 T: memcpy_h2d(0.879023)
F:  1487646----T:  1488438 	 St: c03b7000 Sz: 4096 	 Sm: 0 	 T: memcpy_h2d(0.879023)
F:  1488438----T:  1489230 	 St: c03b9000 Sz: 4096 	 Sm: 0 	 T: memcpy_h2d(0.879023)
F:  1489230----T:  1490022 	 St: c03af000 Sz: 4096 	 Sm: 0 	 T: memcpy_h2d(0.879023)
F:  1490022----T:  1490814 	 St: c03ba000 Sz: 4096 	 Sm: 0 	 T: memcpy_h2d(0.879023)
F:  1490814----T:  1491606 	 St: c03b0000 Sz: 4096 	 Sm: 0 	 T: memcpy_h2d(0.879023)
F:  1491606----T:  1492398 	 St: c03b8000 Sz: 4096 	 Sm: 0 	 T: memcpy_h2d(0.879023)
F:  1492398----T:  1493190 	 St: c03b1000 Sz: 4096 	 Sm: 0 	 T: memcpy_h2d(0.879023)
F:  1493190----T:  1493982 	 St: c03b4000 Sz: 4096 	 Sm: 0 	 T: memcpy_h2d(0.879023)
F:  1493982----T:  1494774 	 St: c03bb000 Sz: 4096 	 Sm: 0 	 T: memcpy_h2d(0.879023)
F:  1494774----T:  1495566 	 St: c03bd000 Sz: 4096 	 Sm: 0 	 T: memcpy_h2d(0.879023)
F:  1495566----T:  1496358 	 St: c03b3000 Sz: 4096 	 Sm: 0 	 T: memcpy_h2d(0.879023)
F:  1496358----T:  1497150 	 St: c03bc000 Sz: 4096 	 Sm: 0 	 T: memcpy_h2d(0.879023)
F:  1497150----T:  1497942 	 St: c03b5000 Sz: 4096 	 Sm: 0 	 T: memcpy_h2d(0.879023)
F:  1497942----T:  1498734 	 St: c03b6000 Sz: 4096 	 Sm: 0 	 T: memcpy_h2d(0.879023)
F:  1498734----T:  1499526 	 St: c03c0000 Sz: 4096 	 Sm: 0 	 T: memcpy_h2d(0.879023)
F:  1499526----T:  1500318 	 St: c03c8000 Sz: 4096 	 Sm: 0 	 T: memcpy_h2d(0.879023)
F:  1500318----T:  1501110 	 St: c03be000 Sz: 4096 	 Sm: 0 	 T: memcpy_h2d(0.879023)
F:  1501110----T:  1501902 	 St: c03c7000 Sz: 4096 	 Sm: 0 	 T: memcpy_h2d(0.879023)
F:  1501902----T:  1502694 	 St: c03cf000 Sz: 4096 	 Sm: 0 	 T: memcpy_h2d(0.879023)
F:  1502694----T:  1503486 	 St: c03c9000 Sz: 4096 	 Sm: 0 	 T: memcpy_h2d(0.879023)
F:  1503486----T:  1504278 	 St: c03d1000 Sz: 4096 	 Sm: 0 	 T: memcpy_h2d(0.879023)
F:  1504278----T:  1505070 	 St: c03bf000 Sz: 4096 	 Sm: 0 	 T: memcpy_h2d(0.879023)
F:  1505070----T:  1505862 	 St: c03d2000 Sz: 4096 	 Sm: 0 	 T: memcpy_h2d(0.879023)
F:  1505862----T:  1506654 	 St: c03d0000 Sz: 4096 	 Sm: 0 	 T: memcpy_h2d(0.879023)
F:  1506654----T:  1507446 	 St: c03c1000 Sz: 4096 	 Sm: 0 	 T: memcpy_h2d(0.879023)
F:  1507446----T:  1508238 	 St: c03ca000 Sz: 4096 	 Sm: 0 	 T: memcpy_h2d(0.879023)
F:  1508238----T:  1509030 	 St: c03cd000 Sz: 4096 	 Sm: 0 	 T: memcpy_h2d(0.879023)
F:  1509030----T:  1509822 	 St: c03c2000 Sz: 4096 	 Sm: 0 	 T: memcpy_h2d(0.879023)
F:  1509822----T:  1510614 	 St: c03c4000 Sz: 4096 	 Sm: 0 	 T: memcpy_h2d(0.879023)
F:  1510614----T:  1511406 	 St: c03d6000 Sz: 4096 	 Sm: 0 	 T: memcpy_h2d(0.879023)
F:  1511406----T:  1512198 	 St: c03cc000 Sz: 4096 	 Sm: 0 	 T: memcpy_h2d(0.879023)
F:  1512198----T:  1512990 	 St: c03d4000 Sz: 4096 	 Sm: 0 	 T: memcpy_h2d(0.879023)
F:  1512990----T:  1513782 	 St: c03ce000 Sz: 4096 	 Sm: 0 	 T: memcpy_h2d(0.879023)
F:  1513782----T:  1514574 	 St: c03c5000 Sz: 4096 	 Sm: 0 	 T: memcpy_h2d(0.879023)
F:  1514574----T:  1515366 	 St: c03d5000 Sz: 4096 	 Sm: 0 	 T: memcpy_h2d(0.879023)
F:  1515366----T:  1516158 	 St: c03d3000 Sz: 4096 	 Sm: 0 	 T: memcpy_h2d(0.879023)
F:  1516158----T:  1516950 	 St: c03cb000 Sz: 4096 	 Sm: 0 	 T: memcpy_h2d(0.879023)
F:  1516950----T:  1517742 	 St: c03c6000 Sz: 4096 	 Sm: 0 	 T: memcpy_h2d(0.879023)
F:  1517742----T:  1518534 	 St: c03c3000 Sz: 4096 	 Sm: 0 	 T: memcpy_h2d(0.879023)
F:  1518534----T:  1519326 	 St: c03da000 Sz: 4096 	 Sm: 0 	 T: memcpy_h2d(0.879023)
F:  1519326----T:  1520118 	 St: c03e0000 Sz: 4096 	 Sm: 0 	 T: memcpy_h2d(0.879023)
F:  1520118----T:  1520910 	 St: c03df000 Sz: 4096 	 Sm: 0 	 T: memcpy_h2d(0.879023)
F:  1520910----T:  1521702 	 St: c03d9000 Sz: 4096 	 Sm: 0 	 T: memcpy_h2d(0.879023)
F:  1521702----T:  1522494 	 St: c03e1000 Sz: 4096 	 Sm: 0 	 T: memcpy_h2d(0.879023)
F:  1522494----T:  1523286 	 St: c03e2000 Sz: 4096 	 Sm: 0 	 T: memcpy_h2d(0.879023)
F:  1523286----T:  1524078 	 St: c03d8000 Sz: 4096 	 Sm: 0 	 T: memcpy_h2d(0.879023)
F:  1524078----T:  1524870 	 St: c03d7000 Sz: 4096 	 Sm: 0 	 T: memcpy_h2d(0.879023)
F:  1524870----T:  1525662 	 St: c03dc000 Sz: 4096 	 Sm: 0 	 T: memcpy_h2d(0.879023)
F:  1525662----T:  1526454 	 St: c03dd000 Sz: 4096 	 Sm: 0 	 T: memcpy_h2d(0.879023)
F:  1526454----T:  1527246 	 St: c03e4000 Sz: 4096 	 Sm: 0 	 T: memcpy_h2d(0.879023)
F:  1527246----T:  1528038 	 St: c03e3000 Sz: 4096 	 Sm: 0 	 T: memcpy_h2d(0.879023)
F:  1528038----T:  1528830 	 St: c03db000 Sz: 4096 	 Sm: 0 	 T: memcpy_h2d(0.879023)
F:  1528830----T:  1529622 	 St: c03e5000 Sz: 4096 	 Sm: 0 	 T: memcpy_h2d(0.879023)
F:  1529622----T:  1530414 	 St: c03e6000 Sz: 4096 	 Sm: 0 	 T: memcpy_h2d(0.879023)
F:  1530414----T:  1531206 	 St: c03f1000 Sz: 4096 	 Sm: 0 	 T: memcpy_h2d(0.879023)
F:  1531206----T:  1531998 	 St: c03de000 Sz: 4096 	 Sm: 0 	 T: memcpy_h2d(0.879023)
F:  1531998----T:  1532790 	 St: c03ef000 Sz: 4096 	 Sm: 0 	 T: memcpy_h2d(0.879023)
F:  1532790----T:  1533582 	 St: c03f9000 Sz: 4096 	 Sm: 0 	 T: memcpy_h2d(0.879023)
F:  1533582----T:  1534374 	 St: c03f0000 Sz: 4096 	 Sm: 0 	 T: memcpy_h2d(0.879023)
F:  1534374----T:  1535166 	 St: c03e7000 Sz: 4096 	 Sm: 0 	 T: memcpy_h2d(0.879023)
F:  1535166----T:  1535958 	 St: c03f7000 Sz: 4096 	 Sm: 0 	 T: memcpy_h2d(0.879023)
F:  1535958----T:  1536750 	 St: c03f8000 Sz: 4096 	 Sm: 0 	 T: memcpy_h2d(0.879023)
F:  1536750----T:  1537542 	 St: c03e8000 Sz: 4096 	 Sm: 0 	 T: memcpy_h2d(0.879023)
F:  1537542----T:  1538334 	 St: c03ea000 Sz: 4096 	 Sm: 0 	 T: memcpy_h2d(0.879023)
F:  1538334----T:  1539126 	 St: c03f3000 Sz: 4096 	 Sm: 0 	 T: memcpy_h2d(0.879023)
F:  1539126----T:  1539918 	 St: c03f2000 Sz: 4096 	 Sm: 0 	 T: memcpy_h2d(0.879023)
F:  1539918----T:  1540710 	 St: c03fc000 Sz: 4096 	 Sm: 0 	 T: memcpy_h2d(0.879023)
F:  1540710----T:  1541502 	 St: c03f5000 Sz: 4096 	 Sm: 0 	 T: memcpy_h2d(0.879023)
F:  1541502----T:  1542294 	 St: c03e9000 Sz: 4096 	 Sm: 0 	 T: memcpy_h2d(0.879023)
F:  1542294----T:  1543086 	 St: c03fa000 Sz: 4096 	 Sm: 0 	 T: memcpy_h2d(0.879023)
F:  1543086----T:  1543878 	 St: c03fb000 Sz: 4096 	 Sm: 0 	 T: memcpy_h2d(0.879023)
F:  1543878----T:  1544670 	 St: c03f4000 Sz: 4096 	 Sm: 0 	 T: memcpy_h2d(0.879023)
F:  1544670----T:  1545462 	 St: c03ec000 Sz: 4096 	 Sm: 0 	 T: memcpy_h2d(0.879023)
F:  1545462----T:  1546254 	 St: c03fd000 Sz: 4096 	 Sm: 0 	 T: memcpy_h2d(0.879023)
F:  1546254----T:  1547046 	 St: c03eb000 Sz: 4096 	 Sm: 0 	 T: memcpy_h2d(0.879023)
F:  1547046----T:  1547838 	 St: c03ed000 Sz: 4096 	 Sm: 0 	 T: memcpy_h2d(0.879023)
F:  1547838----T:  1548630 	 St: c03f6000 Sz: 4096 	 Sm: 0 	 T: memcpy_h2d(0.879023)
F:  1548630----T:  1549422 	 St: c03ee000 Sz: 4096 	 Sm: 0 	 T: memcpy_h2d(0.879023)
F:  1549422----T:  1550214 	 St: c0798000 Sz: 4096 	 Sm: 0 	 T: memcpy_h2d(0.879023)
F:  1550214----T:  1551006 	 St: c07a0000 Sz: 4096 	 Sm: 0 	 T: memcpy_h2d(0.879023)
F:  1551006----T:  1551798 	 St: c07a8000 Sz: 4096 	 Sm: 0 	 T: memcpy_h2d(0.879023)
F:  1551798----T:  1552590 	 St: c07a7000 Sz: 4096 	 Sm: 0 	 T: memcpy_h2d(0.879023)
F:  1552590----T:  1553382 	 St: c07a6000 Sz: 4096 	 Sm: 0 	 T: memcpy_h2d(0.879023)
F:  1553382----T:  1554174 	 St: c07a1000 Sz: 4096 	 Sm: 0 	 T: memcpy_h2d(0.879023)
F:  1554174----T:  1554966 	 St: c0799000 Sz: 4096 	 Sm: 0 	 T: memcpy_h2d(0.879023)
F:  1554966----T:  1555758 	 St: c07a9000 Sz: 4096 	 Sm: 0 	 T: memcpy_h2d(0.879023)
F:  1555758----T:  1556550 	 St: c079a000 Sz: 4096 	 Sm: 0 	 T: memcpy_h2d(0.879023)
F:  1556550----T:  1557342 	 St: c079f000 Sz: 4096 	 Sm: 0 	 T: memcpy_h2d(0.879023)
F:  1557342----T:  1558134 	 St: c07aa000 Sz: 4096 	 Sm: 0 	 T: memcpy_h2d(0.879023)
F:  1558134----T:  1558926 	 St: c07a2000 Sz: 4096 	 Sm: 0 	 T: memcpy_h2d(0.879023)
F:  1558926----T:  1559718 	 St: c07a3000 Sz: 4096 	 Sm: 0 	 T: memcpy_h2d(0.879023)
F:  1559718----T:  1560510 	 St: c07a4000 Sz: 4096 	 Sm: 0 	 T: memcpy_h2d(0.879023)
F:  1560510----T:  1561302 	 St: c07a5000 Sz: 4096 	 Sm: 0 	 T: memcpy_h2d(0.879023)
F:  1561302----T:  1562094 	 St: c07ab000 Sz: 4096 	 Sm: 0 	 T: memcpy_h2d(0.879023)
F:  1562094----T:  1562886 	 St: c07ac000 Sz: 4096 	 Sm: 0 	 T: memcpy_h2d(0.879023)
F:  1562886----T:  1563678 	 St: c07ad000 Sz: 4096 	 Sm: 0 	 T: memcpy_h2d(0.879023)
F:  1563678----T:  1564470 	 St: c079b000 Sz: 4096 	 Sm: 0 	 T: memcpy_h2d(0.879023)
F:  1564470----T:  1565262 	 St: c079c000 Sz: 4096 	 Sm: 0 	 T: memcpy_h2d(0.879023)
F:  1565262----T:  1566054 	 St: c079d000 Sz: 4096 	 Sm: 0 	 T: memcpy_h2d(0.879023)
F:  1566054----T:  1566846 	 St: c079e000 Sz: 4096 	 Sm: 0 	 T: memcpy_h2d(0.879023)
F:  1566846----T:  1567638 	 St: c07ae000 Sz: 4096 	 Sm: 0 	 T: memcpy_h2d(0.879023)
F:  1567638----T:  1568430 	 St: c07af000 Sz: 4096 	 Sm: 0 	 T: memcpy_h2d(0.879023)
F:  1568430----T:  1569222 	 St: c07b8000 Sz: 4096 	 Sm: 0 	 T: memcpy_h2d(0.879023)
F:  1569222----T:  1570014 	 St: c07b9000 Sz: 4096 	 Sm: 0 	 T: memcpy_h2d(0.879023)
F:  1570014----T:  1570806 	 St: c07b0000 Sz: 4096 	 Sm: 0 	 T: memcpy_h2d(0.879023)
F:  1570806----T:  1571598 	 St: c07b1000 Sz: 4096 	 Sm: 0 	 T: memcpy_h2d(0.879023)
F:  1571598----T:  1572390 	 St: c07ba000 Sz: 4096 	 Sm: 0 	 T: memcpy_h2d(0.879023)
F:  1572390----T:  1573182 	 St: c07b2000 Sz: 4096 	 Sm: 0 	 T: memcpy_h2d(0.879023)
F:  1573182----T:  1573974 	 St: c07b3000 Sz: 4096 	 Sm: 0 	 T: memcpy_h2d(0.879023)
F:  1573974----T:  1574766 	 St: c07bb000 Sz: 4096 	 Sm: 0 	 T: memcpy_h2d(0.879023)
F:  1574766----T:  1575558 	 St: c07bc000 Sz: 4096 	 Sm: 0 	 T: memcpy_h2d(0.879023)
F:  1575558----T:  1576350 	 St: c07b4000 Sz: 4096 	 Sm: 0 	 T: memcpy_h2d(0.879023)
F:  1576350----T:  1577142 	 St: c07b5000 Sz: 4096 	 Sm: 0 	 T: memcpy_h2d(0.879023)
F:  1577142----T:  1577934 	 St: c07b6000 Sz: 4096 	 Sm: 0 	 T: memcpy_h2d(0.879023)
F:  1577934----T:  1578726 	 St: c07b7000 Sz: 4096 	 Sm: 0 	 T: memcpy_h2d(0.879023)
F:  1578726----T:  1579518 	 St: c07bd000 Sz: 4096 	 Sm: 0 	 T: memcpy_h2d(0.879023)
F:  1579518----T:  1580310 	 St: c07c8000 Sz: 4096 	 Sm: 0 	 T: memcpy_h2d(0.879023)
F:  1580310----T:  1581102 	 St: c07be000 Sz: 4096 	 Sm: 0 	 T: memcpy_h2d(0.879023)
F:  1581102----T:  1581894 	 St: c07bf000 Sz: 4096 	 Sm: 0 	 T: memcpy_h2d(0.879023)
F:  1581894----T:  1582686 	 St: c07d0000 Sz: 4096 	 Sm: 0 	 T: memcpy_h2d(0.879023)
F:  1582686----T:  1583478 	 St: c07d1000 Sz: 4096 	 Sm: 0 	 T: memcpy_h2d(0.879023)
F:  1583478----T:  1584270 	 St: c07c0000 Sz: 4096 	 Sm: 0 	 T: memcpy_h2d(0.879023)
F:  1584270----T:  1585062 	 St: c07c9000 Sz: 4096 	 Sm: 0 	 T: memcpy_h2d(0.879023)
F:  1585062----T:  1585854 	 St: c07c1000 Sz: 4096 	 Sm: 0 	 T: memcpy_h2d(0.879023)
F:  1585854----T:  1586646 	 St: c07cd000 Sz: 4096 	 Sm: 0 	 T: memcpy_h2d(0.879023)
F:  1586646----T:  1587438 	 St: c07ce000 Sz: 4096 	 Sm: 0 	 T: memcpy_h2d(0.879023)
F:  1587438----T:  1588230 	 St: c07cf000 Sz: 4096 	 Sm: 0 	 T: memcpy_h2d(0.879023)
F:  1588230----T:  1589022 	 St: c07d5000 Sz: 4096 	 Sm: 0 	 T: memcpy_h2d(0.879023)
F:  1589022----T:  1589814 	 St: c07d2000 Sz: 4096 	 Sm: 0 	 T: memcpy_h2d(0.879023)
F:  1589814----T:  1590606 	 St: c07d3000 Sz: 4096 	 Sm: 0 	 T: memcpy_h2d(0.879023)
F:  1590606----T:  1591398 	 St: c07d4000 Sz: 4096 	 Sm: 0 	 T: memcpy_h2d(0.879023)
F:  1591398----T:  1592190 	 St: c07ca000 Sz: 4096 	 Sm: 0 	 T: memcpy_h2d(0.879023)
F:  1592190----T:  1592982 	 St: c07cb000 Sz: 4096 	 Sm: 0 	 T: memcpy_h2d(0.879023)
F:  1592982----T:  1593774 	 St: c07cc000 Sz: 4096 	 Sm: 0 	 T: memcpy_h2d(0.879023)
F:  1593774----T:  1594566 	 St: c07c5000 Sz: 4096 	 Sm: 0 	 T: memcpy_h2d(0.879023)
F:  1594566----T:  1595358 	 St: c07c6000 Sz: 4096 	 Sm: 0 	 T: memcpy_h2d(0.879023)
F:  1595358----T:  1596150 	 St: c07c7000 Sz: 4096 	 Sm: 0 	 T: memcpy_h2d(0.879023)
F:  1596150----T:  1596942 	 St: c07c2000 Sz: 4096 	 Sm: 0 	 T: memcpy_h2d(0.879023)
F:  1596942----T:  1597734 	 St: c07c3000 Sz: 4096 	 Sm: 0 	 T: memcpy_h2d(0.879023)
F:  1597734----T:  1598526 	 St: c07c4000 Sz: 4096 	 Sm: 0 	 T: memcpy_h2d(0.879023)
F:  1598526----T:  1599318 	 St: c07e0000 Sz: 4096 	 Sm: 0 	 T: memcpy_h2d(0.879023)
F:  1599318----T:  1600110 	 St: c07e1000 Sz: 4096 	 Sm: 0 	 T: memcpy_h2d(0.879023)
F:  1600110----T:  1600902 	 St: c07d9000 Sz: 4096 	 Sm: 0 	 T: memcpy_h2d(0.879023)
F:  1600902----T:  1601694 	 St: c07d6000 Sz: 4096 	 Sm: 0 	 T: memcpy_h2d(0.879023)
F:  1601694----T:  1602486 	 St: c07d8000 Sz: 4096 	 Sm: 0 	 T: memcpy_h2d(0.879023)
F:  1602486----T:  1603278 	 St: c07d7000 Sz: 4096 	 Sm: 0 	 T: memcpy_h2d(0.879023)
F:  1603278----T:  1604070 	 St: c07e2000 Sz: 4096 	 Sm: 0 	 T: memcpy_h2d(0.879023)
F:  1604070----T:  1604862 	 St: c07e3000 Sz: 4096 	 Sm: 0 	 T: memcpy_h2d(0.879023)
F:  1604862----T:  1605654 	 St: c07da000 Sz: 4096 	 Sm: 0 	 T: memcpy_h2d(0.879023)
F:  1605654----T:  1606446 	 St: c07db000 Sz: 4096 	 Sm: 0 	 T: memcpy_h2d(0.879023)
F:  1606446----T:  1607238 	 St: c07dc000 Sz: 4096 	 Sm: 0 	 T: memcpy_h2d(0.879023)
F:  1607238----T:  1608030 	 St: c07e4000 Sz: 4096 	 Sm: 0 	 T: memcpy_h2d(0.879023)
F:  1608030----T:  1608822 	 St: c07e5000 Sz: 4096 	 Sm: 0 	 T: memcpy_h2d(0.879023)
F:  1608822----T:  1609614 	 St: c07dd000 Sz: 4096 	 Sm: 0 	 T: memcpy_h2d(0.879023)
F:  1609614----T:  1610406 	 St: c07de000 Sz: 4096 	 Sm: 0 	 T: memcpy_h2d(0.879023)
F:  1610406----T:  1611198 	 St: c07df000 Sz: 4096 	 Sm: 0 	 T: memcpy_h2d(0.879023)
F:  1611198----T:  1611990 	 St: c07f0000 Sz: 4096 	 Sm: 0 	 T: memcpy_h2d(0.879023)
F:  1611990----T:  1612782 	 St: c07e6000 Sz: 4096 	 Sm: 0 	 T: memcpy_h2d(0.879023)
F:  1612782----T:  1613574 	 St: c07f8000 Sz: 4096 	 Sm: 0 	 T: memcpy_h2d(0.879023)
F:  1613574----T:  1614366 	 St: c07e7000 Sz: 4096 	 Sm: 0 	 T: memcpy_h2d(0.879023)
F:  1614366----T:  1615158 	 St: c07f1000 Sz: 4096 	 Sm: 0 	 T: memcpy_h2d(0.879023)
F:  1615158----T:  1615950 	 St: c07f2000 Sz: 4096 	 Sm: 0 	 T: memcpy_h2d(0.879023)
F:  1615950----T:  1616742 	 St: c07e8000 Sz: 4096 	 Sm: 0 	 T: memcpy_h2d(0.879023)
F:  1616742----T:  1617534 	 St: c07e9000 Sz: 4096 	 Sm: 0 	 T: memcpy_h2d(0.879023)
F:  1617534----T:  1618326 	 St: c07f9000 Sz: 4096 	 Sm: 0 	 T: memcpy_h2d(0.879023)
F:  1618326----T:  1619118 	 St: c07fa000 Sz: 4096 	 Sm: 0 	 T: memcpy_h2d(0.879023)
F:  1619118----T:  1619910 	 St: c07fb000 Sz: 4096 	 Sm: 0 	 T: memcpy_h2d(0.879023)
F:  1619910----T:  1620702 	 St: c07f3000 Sz: 4096 	 Sm: 0 	 T: memcpy_h2d(0.879023)
F:  1620702----T:  1621494 	 St: c07f4000 Sz: 4096 	 Sm: 0 	 T: memcpy_h2d(0.879023)
F:  1621494----T:  1622286 	 St: c03fe000 Sz: 4096 	 Sm: 0 	 T: memcpy_h2d(0.879023)
F:  1622286----T:  1623078 	 St: c07fc000 Sz: 4096 	 Sm: 0 	 T: memcpy_h2d(0.879023)
F:  1623078----T:  1623870 	 St: c07ea000 Sz: 4096 	 Sm: 0 	 T: memcpy_h2d(0.879023)
F:  1623870----T:  1624662 	 St: c07eb000 Sz: 4096 	 Sm: 0 	 T: memcpy_h2d(0.879023)
F:  1624662----T:  1625454 	 St: c07ec000 Sz: 4096 	 Sm: 0 	 T: memcpy_h2d(0.879023)
F:  1625454----T:  1626246 	 St: c07f5000 Sz: 4096 	 Sm: 0 	 T: memcpy_h2d(0.879023)
F:  1626246----T:  1627038 	 St: c07f6000 Sz: 4096 	 Sm: 0 	 T: memcpy_h2d(0.879023)
F:  1627038----T:  1627830 	 St: c07f7000 Sz: 4096 	 Sm: 0 	 T: memcpy_h2d(0.879023)
F:  1627830----T:  1628622 	 St: c07ed000 Sz: 4096 	 Sm: 0 	 T: memcpy_h2d(0.879023)
F:  1628622----T:  1629414 	 St: c07ee000 Sz: 4096 	 Sm: 0 	 T: memcpy_h2d(0.879023)
F:  1629414----T:  1630206 	 St: c07ef000 Sz: 4096 	 Sm: 0 	 T: memcpy_h2d(0.879023)
F:  1630206----T:  1630998 	 St: c07fd000 Sz: 4096 	 Sm: 0 	 T: memcpy_h2d(0.879023)
F:  1630998----T:  1631790 	 St: c03ff000 Sz: 4096 	 Sm: 0 	 T: memcpy_h2d(0.879023)
F:  1632084----T:  1632876 	 St: c07fe000 Sz: 4096 	 Sm: 0 	 T: memcpy_h2d(0.879023)
Tot_prefetch_time: 0(cycle), 0.000000(us)
Tot_kernel_exec_time: 1628011(cycle), 1806.893433(us)
Tot_kernel_exec_time_and_fault_time: 38496931(cycle), 42726.894531(us)
Tot_memcpy_h2d_time: 1620432(cycle), 1798.481689(us)
Tot_memcpy_d2h_time: 0(cycle), 0.000000(us)
Tot_memcpy_time: 1620432(cycle), 1798.481689(us)
Tot_devicesync_time: 0(cycle), 0.000000(us)
Tot_writeback_time: 0(cycle), 0.000000(us)
Tot_dma_time: 0(cycle), 0.000000(us)
Tot_memcpy_d2h_sync_wb_time: 0(cycle), 0.000000(us)
----------------------------Interconnect-DETAILS--------------------------------
Req_Network_injected_packets_num = 373636
Req_Network_cycles = 1628011
Req_Network_injected_packets_per_cycle =       0.2295 
Req_Network_conflicts_per_cycle =       0.2045
Req_Network_conflicts_per_cycle_util =      11.8570
Req_Bank_Level_Parallism =      13.3057
Req_Network_in_buffer_full_per_cycle =       0.0000
Req_Network_in_buffer_avg_util =       0.0066
Req_Network_out_buffer_full_per_cycle =       0.0000
Req_Network_out_buffer_avg_util =       0.0036

Reply_Network_injected_packets_num = 373636
Reply_Network_cycles = 1628011
Reply_Network_injected_packets_per_cycle =        0.2295
Reply_Network_conflicts_per_cycle =        0.0008
Reply_Network_conflicts_per_cycle_util =       0.0493
Reply_Bank_Level_Parallism =      13.3057
Reply_Network_in_buffer_full_per_cycle =       0.0000
Reply_Network_in_buffer_avg_util =       0.0000
Reply_Network_out_buffer_full_per_cycle =       0.0000
Reply_Network_out_buffer_avg_util =       0.0029
----------------------------END-of-Interconnect-DETAILS-------------------------


gpgpu_simulation_time = 0 days, 2 hrs, 24 min, 21 sec (8661 sec)
gpgpu_simulation_rate = 5434 (inst/sec)
gpgpu_simulation_rate = 188 (cycle/sec)
gpgpu_silicon_slowdown = 4792553x
GPGPU-Sim: detected inactive GPU simulation thread
GPGPU-Sim: *** exit detected ***
