Skipping setup_environment - already set
doing: export -n PTX_SIM_USE_PTX_FILE
doing: export LD_LIBRARY_PATH=/p/confidentialgpu/sim_run_11.8/gpgpu-sim-builds/gpgpu-sim_git-commit-86b30a5ada0d3c0446ed64d4b09d4a4ef08c5ee3_modified_2.0:/p/confidentialgpu/simulator/lib/gcc-/cuda-11080/debug:/p/confidentialgpu/simulator/lib/gcc-/cuda-11080/debug:/u/xqg5sq/Documents/deps/cuda/lib:/u/xqg5sq/Documents/deps/cuda/lib64:
doing: cd /p/confidentialgpu/sim_run_11.8/uvm-atax/NO_ARGS/A100
doing: export OPENCL_CURRENT_TEST_PATH=/p/confidentialgpu/sim_run_11.8/uvm-atax/NO_ARGS/A100
doing: export OPENCL_REMOTE_GPU_HOST=REPLACE_REMOTE_HOST
doing 
doing: export PATH=/p/confidentialgpu/simulator/bin:/u/xqg5sq/Documents/deps/cuda/bin:/u/xqg5sq/Documents/deps/kcapi/bin:/u/xqg5sq/Documents/deps/cuda/bin:/sw/ubuntu-22.04/anaconda3/2022.05/condabin:/u/xqg5sq/Documents/deps/kcapi/bin:/u/xqg5sq/Documents/deps/cuda/bin:/sw/ubuntu-22.04/modules/5.0.1/bin:/usr/local/sbin:/usr/local/bin:/usr/sbin:/usr/bin:/sbin:/bin:/usr/games:/usr/local/games:/snap/bin:/opt/puppetlabs/bin:/u/xqg5sq/bin:/u/xqg5sq/bin
doing export CUDA_LAUNCH_BLOCKING=1
doing:  /u/xqg5sq/insight-lab/salus/gpu-app-collection/src/..//bin/11.8/release2/uvm-atax 


        *** GPGPU-Sim Simulator Version 4.2.0  [build gpgpu-sim_git-commit-86b30a5ada0d3c0446ed64d4b09d4a4ef08c5ee3_modified_2.0] ***


GPGPU-Sim PTX: simulation mode 0 (can change with PTX_SIM_MODE_FUNC environment variable:
               1=functional simulation only, 0=detailed performance simulator)
GPGPU-Sim: Configuration options:

-save_embedded_ptx                      0 # saves ptx files embedded in binary as <n>.ptx
-keep                                   0 # keep intermediate files created by GPGPU-Sim when interfacing with external programs
-gpgpu_ptx_save_converted_ptxplus                    0 # Saved converted ptxplus to a file
-gpgpu_occupancy_sm_number                   86 # The SM number to pass to ptxas when getting register usage for computing GPU occupancy. This parameter is required in the config.
-ptx_opcode_latency_int      4,13,4,5,145,21 # Opcode latencies for integers <ADD,MAX,MUL,MAD,DIV,SHFL>Default 1,1,19,25,145,32
-ptx_opcode_latency_fp          4,13,4,5,39 # Opcode latencies for single precision floating points <ADD,MAX,MUL,MAD,DIV>Default 1,1,1,1,30
-ptx_opcode_latency_dp         8,19,8,8,330 # Opcode latencies for double precision floating points <ADD,MAX,MUL,MAD,DIV>Default 8,8,8,8,335
-ptx_opcode_latency_sfu                  100 # Opcode latencies for SFU instructionsDefault 8
-ptx_opcode_latency_tesnor                   64 # Opcode latencies for Tensor instructionsDefault 64
-ptx_opcode_initiation_int          2,2,2,2,8,4 # Opcode initiation intervals for integers <ADD,MAX,MUL,MAD,DIV,SHFL>Default 1,1,4,4,32,4
-ptx_opcode_initiation_fp            2,2,2,2,4 # Opcode initiation intervals for single precision floating points <ADD,MAX,MUL,MAD,DIV>Default 1,1,1,1,5
-ptx_opcode_initiation_dp          4,4,4,4,130 # Opcode initiation intervals for double precision floating points <ADD,MAX,MUL,MAD,DIV>Default 8,8,8,8,130
-ptx_opcode_initiation_sfu                    8 # Opcode initiation intervals for sfu instructionsDefault 8
-ptx_opcode_initiation_tensor                   64 # Opcode initiation intervals for tensor instructionsDefault 64
-cdp_latency         7200,8000,100,12000,1600 # CDP API latency <cudaStreamCreateWithFlags, cudaGetParameterBufferV2_init_perWarp, cudaGetParameterBufferV2_perKernel, cudaLaunchDeviceV2_init_perWarp, cudaLaunchDevicV2_perKernel>Default 7200,8000,100,12000,1600
-network_mode                           2 # Interconnection network mode
-inter_config_file                   mesh # Interconnection network config file
-icnt_in_buffer_limit                  512 # in_buffer_limit
-icnt_out_buffer_limit                  512 # out_buffer_limit
-icnt_subnets                           2 # subnets
-icnt_arbiter_algo                      1 # arbiter_algo
-icnt_verbose                           0 # inct_verbose
-icnt_grant_cycles                      1 # grant_cycles
-gpgpu_ptx_use_cuobjdump                    1 # Use cuobjdump to extract ptx and sass from binaries
-gpgpu_experimental_lib_support                    0 # Try to extract code from cuda libraries [Broken because of unknown cudaGetExportTable]
-checkpoint_option                      0 #  checkpointing flag (0 = no checkpoint)
-checkpoint_kernel                      1 #  checkpointing during execution of which kernel (1- 1st kernel)
-checkpoint_CTA                         0 #  checkpointing after # of CTA (< less than total CTA)
-resume_option                          0 #  resume flag (0 = no resume)
-resume_kernel                          0 #  Resume from which kernel (1= 1st kernel)
-resume_CTA                             0 #  resume from which CTA 
-checkpoint_CTA_t                       0 #  resume from which CTA 
-checkpoint_insn_Y                      0 #  resume from which CTA 
-gpgpu_ptx_convert_to_ptxplus                    0 # Convert SASS (native ISA) to ptxplus and run ptxplus
-gpgpu_ptx_force_max_capability                   86 # Force maximum compute capability
-gpgpu_ptx_inst_debug_to_file                    0 # Dump executed instructions' debug information to file
-gpgpu_ptx_inst_debug_file       inst_debug.txt # Executed instructions' debug output file
-gpgpu_ptx_inst_debug_thread_uid                    1 # Thread UID for executed instructions' debug output
-gpgpu_simd_model                       1 # 1 = post-dominator
-gpgpu_shader_core_pipeline              2048:32 # shader core pipeline config, i.e., {<nthread>:<warpsize>}
-gpgpu_tex_cache:l1  N:4:128:256,L:R:m:N:L,T:512:8,128:2 # per-shader L1 texture cache  (READ-ONLY) config  {<nsets>:<bsize>:<assoc>,<rep>:<wr>:<alloc>:<wr_alloc>,<mshr>:<N>:<merge>,<mq>:<rf>}
-gpgpu_const_cache:l1 N:128:64:8,L:R:f:N:L,S:2:64,4 # per-shader L1 constant memory cache  (READ-ONLY) config  {<nsets>:<bsize>:<assoc>,<rep>:<wr>:<alloc>:<wr_alloc>,<mshr>:<N>:<merge>,<mq>} 
-gpgpu_cache:il1     N:64:128:16,L:R:f:N:L,S:2:48,4 # shader L1 instruction cache config  {<nsets>:<bsize>:<assoc>,<rep>:<wr>:<alloc>:<wr_alloc>,<mshr>:<N>:<merge>,<mq>} 
-gpgpu_cache:dl1     S:4:128:128,L:T:m:L:L,A:384:48,16:0,32 # per-shader L1 data cache config  {<nsets>:<bsize>:<assoc>,<rep>:<wr>:<alloc>:<wr_alloc>,<mshr>:<N>:<merge>,<mq> | none}
-gpgpu_l1_cache_write_ratio                   25 # L1D write ratio
-gpgpu_l1_banks                         4 # The number of L1 cache banks
-gpgpu_l1_banks_byte_interleaving                   32 # l1 banks byte interleaving granularity
-gpgpu_l1_banks_hashing_function                    0 # l1 banks hashing function
-gpgpu_l1_latency                      15 # L1 Hit Latency
-gpgpu_smem_latency                    20 # smem Latency
-gpgpu_cache:dl1PrefL1                 none # per-shader L1 data cache config  {<nsets>:<bsize>:<assoc>,<rep>:<wr>:<alloc>:<wr_alloc>,<mshr>:<N>:<merge>,<mq> | none}
-gpgpu_cache:dl1PrefShared                 none # per-shader L1 data cache config  {<nsets>:<bsize>:<assoc>,<rep>:<wr>:<alloc>:<wr_alloc>,<mshr>:<N>:<merge>,<mq> | none}
-gpgpu_gmem_skip_L1D                    0 # global memory access skip L1D cache (implements -Xptxas -dlcm=cg, default=no skip)
-gpgpu_perfect_mem                      0 # enable perfect memory mode (no cache miss)
-n_regfile_gating_group                    4 # group of lanes that should be read/written together)
-gpgpu_clock_gated_reg_file                    0 # enable clock gated reg file for power calculations
-gpgpu_clock_gated_lanes                    0 # enable clock gated lanes for power calculations
-gpgpu_shader_registers                65536 # Number of registers per shader core. Limits number of concurrent CTAs. (default 8192)
-gpgpu_registers_per_block                65536 # Maximum number of registers per CTA. (default 8192)
-gpgpu_ignore_resources_limitation                    0 # gpgpu_ignore_resources_limitation (default 0)
-gpgpu_shader_cta                      32 # Maximum number of concurrent CTAs in shader (default 8)
-gpgpu_num_cta_barriers                   16 # Maximum number of named barriers per CTA (default 16)
-gpgpu_n_clusters                      80 # number of processing clusters
-gpgpu_n_cores_per_cluster                    1 # number of simd cores per cluster
-gpgpu_n_cluster_ejection_buffer_size                   32 # number of packets in ejection buffer
-gpgpu_n_ldst_response_buffer_size                    2 # number of response packets in ld/st unit ejection buffer
-gpgpu_shmem_per_block                65536 # Size of shared memory per thread block or CTA (default 48kB)
-gpgpu_shmem_size                  131072 # Size of shared memory per shader core (default 16kB)
-gpgpu_shmem_option       0,8,16,32,64,96 # Option list of shared memory sizes
-gpgpu_unified_l1d_size                  192 # Size of unified data cache(L1D + shared memory) in KB
-gpgpu_adaptive_cache_config                    1 # adaptive_cache_config
-gpgpu_shmem_sizeDefault               131072 # Size of shared memory per shader core (default 16kB)
-gpgpu_shmem_size_PrefL1                16384 # Size of shared memory per shader core (default 16kB)
-gpgpu_shmem_size_PrefShared                16384 # Size of shared memory per shader core (default 16kB)
-gpgpu_shmem_num_banks                   32 # Number of banks in the shared memory in each shader core (default 16)
-gpgpu_shmem_limited_broadcast                    0 # Limit shared memory to do one broadcast per cycle (default on)
-gpgpu_shmem_warp_parts                    1 # Number of portions a warp is divided into for shared memory bank conflict check 
-gpgpu_mem_unit_ports                    1 # The number of memory transactions allowed per core cycle
-gpgpu_shmem_warp_parts                    1 # Number of portions a warp is divided into for shared memory bank conflict check 
-gpgpu_warpdistro_shader                   -1 # Specify which shader core to collect the warp size distribution from
-gpgpu_warp_issue_shader                    0 # Specify which shader core to collect the warp issue distribution from
-gpgpu_local_mem_map                    1 # Mapping from local memory space address to simulated GPU physical address space (default = enabled)
-gpgpu_num_reg_banks                   16 # Number of register banks (default = 8)
-gpgpu_reg_bank_use_warp_id                    0 # Use warp ID in mapping registers to banks (default = off)
-gpgpu_sub_core_model                    1 # Sub Core Volta/Pascal model (default = off)
-gpgpu_enable_specialized_operand_collector                    0 # enable_specialized_operand_collector
-gpgpu_operand_collector_num_units_sp                    4 # number of collector units (default = 4)
-gpgpu_operand_collector_num_units_dp                    0 # number of collector units (default = 0)
-gpgpu_operand_collector_num_units_sfu                    4 # number of collector units (default = 4)
-gpgpu_operand_collector_num_units_int                    0 # number of collector units (default = 0)
-gpgpu_operand_collector_num_units_tensor_core                    4 # number of collector units (default = 4)
-gpgpu_operand_collector_num_units_mem                    2 # number of collector units (default = 2)
-gpgpu_operand_collector_num_units_gen                    8 # number of collector units (default = 0)
-gpgpu_operand_collector_num_in_ports_sp                    1 # number of collector unit in ports (default = 1)
-gpgpu_operand_collector_num_in_ports_dp                    0 # number of collector unit in ports (default = 0)
-gpgpu_operand_collector_num_in_ports_sfu                    1 # number of collector unit in ports (default = 1)
-gpgpu_operand_collector_num_in_ports_int                    0 # number of collector unit in ports (default = 0)
-gpgpu_operand_collector_num_in_ports_tensor_core                    1 # number of collector unit in ports (default = 1)
-gpgpu_operand_collector_num_in_ports_mem                    1 # number of collector unit in ports (default = 1)
-gpgpu_operand_collector_num_in_ports_gen                    8 # number of collector unit in ports (default = 0)
-gpgpu_operand_collector_num_out_ports_sp                    1 # number of collector unit in ports (default = 1)
-gpgpu_operand_collector_num_out_ports_dp                    0 # number of collector unit in ports (default = 0)
-gpgpu_operand_collector_num_out_ports_sfu                    1 # number of collector unit in ports (default = 1)
-gpgpu_operand_collector_num_out_ports_int                    0 # number of collector unit in ports (default = 0)
-gpgpu_operand_collector_num_out_ports_tensor_core                    1 # number of collector unit in ports (default = 1)
-gpgpu_operand_collector_num_out_ports_mem                    1 # number of collector unit in ports (default = 1)
-gpgpu_operand_collector_num_out_ports_gen                    8 # number of collector unit in ports (default = 0)
-gpgpu_coalesce_arch                   86 # Coalescing arch (GT200 = 13, Fermi = 20)
-gpgpu_num_sched_per_core                    4 # Number of warp schedulers per core
-gpgpu_max_insn_issue_per_warp                    1 # Max number of instructions that can be issued per warp in one cycle by scheduler (either 1 or 2)
-gpgpu_dual_issue_diff_exec_units                    1 # should dual issue use two different execution unit resources (Default = 1)
-gpgpu_simt_core_sim_order                    1 # Select the simulation order of cores in a cluster (0=Fix, 1=Round-Robin)
-gpgpu_pipeline_widths 4,4,4,4,4,4,4,4,4,4,8,4,4 # Pipeline widths ID_OC_SP,ID_OC_DP,ID_OC_INT,ID_OC_SFU,ID_OC_MEM,OC_EX_SP,OC_EX_DP,OC_EX_INT,OC_EX_SFU,OC_EX_MEM,EX_WB,ID_OC_TENSOR_CORE,OC_EX_TENSOR_CORE
-gpgpu_tensor_core_avail                    1 # Tensor Core Available (default=0)
-gpgpu_num_sp_units                     4 # Number of SP units (default=1)
-gpgpu_num_dp_units                     4 # Number of DP units (default=0)
-gpgpu_num_int_units                    4 # Number of INT units (default=0)
-gpgpu_num_sfu_units                    4 # Number of SF units (default=1)
-gpgpu_num_tensor_core_units                    4 # Number of tensor_core units (default=1)
-gpgpu_num_mem_units                    1 # Number if ldst units (default=1) WARNING: not hooked up to anything
-gpgpu_scheduler                      gto # Scheduler configuration: < lrr | gto | two_level_active > If two_level_active:<num_active_warps>:<inner_prioritization>:<outer_prioritization>For complete list of prioritization values see shader.h enum scheduler_prioritization_typeDefault: gto
-gpgpu_concurrent_kernel_sm                    0 # Support concurrent kernels on a SM (default = disabled)
-gpgpu_perfect_inst_const_cache                    1 # perfect inst and const cache mode, so all inst and const hits in the cache(default = disabled)
-gpgpu_inst_fetch_throughput                    4 # the number of fetched intruction per warp each cycle
-gpgpu_reg_file_port_throughput                    2 # the number ports of the register file
-tlb_size                            4096 # Number of tlb entries per SM.
-specialized_unit_1         0,4,4,4,4,BRA # specialized unit config {<enabled>,<num_units>:<latency>:<initiation>,<ID_OC_SPEC>:<OC_EX_SPEC>,<NAME>}
-specialized_unit_2         0,4,4,4,4,BRA # specialized unit config {<enabled>,<num_units>:<latency>:<initiation>,<ID_OC_SPEC>:<OC_EX_SPEC>,<NAME>}
-specialized_unit_3         0,4,4,4,4,BRA # specialized unit config {<enabled>,<num_units>:<latency>:<initiation>,<ID_OC_SPEC>:<OC_EX_SPEC>,<NAME>}
-specialized_unit_4         0,4,4,4,4,BRA # specialized unit config {<enabled>,<num_units>:<latency>:<initiation>,<ID_OC_SPEC>:<OC_EX_SPEC>,<NAME>}
-specialized_unit_5         0,4,4,4,4,BRA # specialized unit config {<enabled>,<num_units>:<latency>:<initiation>,<ID_OC_SPEC>:<OC_EX_SPEC>,<NAME>}
-specialized_unit_6         0,4,4,4,4,BRA # specialized unit config {<enabled>,<num_units>:<latency>:<initiation>,<ID_OC_SPEC>:<OC_EX_SPEC>,<NAME>}
-specialized_unit_7         0,4,4,4,4,BRA # specialized unit config {<enabled>,<num_units>:<latency>:<initiation>,<ID_OC_SPEC>:<OC_EX_SPEC>,<NAME>}
-specialized_unit_8         0,4,4,4,4,BRA # specialized unit config {<enabled>,<num_units>:<latency>:<initiation>,<ID_OC_SPEC>:<OC_EX_SPEC>,<NAME>}
-gpgpu_perf_sim_memcpy                    1 # Fill the L2 cache on memcpy
-gpgpu_simple_dram_model                    0 # simple_dram_model with fixed latency and BW
-gpgpu_dram_scheduler                    1 # 0 = fifo, 1 = FR-FCFS (defaul)
-gpgpu_dram_partition_queues          64:64:64:64 # i2$:$2d:d2$:$2i
-l2_ideal                               0 # Use a ideal L2 cache that always hit
-gpgpu_cache:dl2     S:64:128:24,L:B:m:L:P,A:192:4,32:0,32 # unified banked L2 data cache config  {<nsets>:<bsize>:<assoc>,<rep>:<wr>:<alloc>:<wr_alloc>,<mshr>:<N>:<merge>,<mq>}
-gpgpu_cache:dl2_texture_only                    0 # L2 cache used for texture only
-gpgpu_n_mem                           32 # number of memory modules (e.g. memory controllers) in gpu
-gpgpu_n_sub_partition_per_mchannel                    2 # number of memory subpartition in each memory module
-gpgpu_n_mem_per_ctrlr                    1 # number of memory chips per memory controller
-gpgpu_memlatency_stat                   14 # track and display latency statistics 0x2 enables MC, 0x4 enables queue logs
-gpgpu_frfcfs_dram_sched_queue_size                  128 # 0 = unlimited (default); # entries per chip
-gpgpu_dram_return_queue_size                  192 # 0 = unlimited (default); # entries per chip
-gpgpu_dram_buswidth                   16 # default = 4 bytes (8 bytes per cycle at DDR)
-gpgpu_dram_burst_length                    2 # Burst length of each DRAM request (default = 4 data bus cycle)
-dram_data_command_freq_ratio                    2 # Frequency ratio between DRAM data bus and command bus (default = 2 times, i.e. DDR)
-gpgpu_dram_timing_opt nbk=16:CCD=1:RRD=4:RCD=14:RAS=33:RP=14:RC=47:CL=14:WL=2:CDLR=3:WR=12:nbkgrp=4:CCDL=2:RTPL=4 # DRAM timing parameters = {nbk:tCCD:tRRD:tRCD:tRAS:tRP:tRC:CL:WL:tCDLR:tWR:nbkgrp:tCCDL:tRTPL}
-gpgpu_l2_rop_latency                  120 # ROP queue latency (default 85)
-dram_latency                         100 # DRAM latency (default 30)
-dram_dual_bus_interface                    1 # dual_bus_interface (default = 0) 
-dram_bnk_indexing_policy                    0 # dram_bnk_indexing_policy (0 = normal indexing, 1 = Xoring with the higher bits) (Default = 0)
-dram_bnkgrp_indexing_policy                    1 # dram_bnkgrp_indexing_policy (0 = take higher bits, 1 = take lower bits) (Default = 0)
-dram_seperate_write_queue_enable                    0 # Seperate_Write_Queue_Enable
-dram_write_queue_size             32:28:16 # Write_Queue_Size
-dram_elimnate_rw_turnaround                    0 # elimnate_rw_turnaround i.e set tWTR and tRTW = 0
-icnt_flit_size                        40 # icnt_flit_size
-gpgpu_mem_addr_mapping dramid@8;00000000.00000000.00000000.00000000.0000RRRR.RRRRRRRR.RBBBCCCB.CCCSSSSS # mapping memory address to dram model {dramid@<start bit>;<memory address map>}
-gpgpu_mem_addr_test                    0 # run sweep test to check address mapping for aliased address
-gpgpu_mem_address_mask                    1 # 0 = old addressing mask, 1 = new addressing mask, 2 = new add. mask + flipped bank sel and chip sel bits
-gpgpu_memory_partition_indexing                    2 # 0 = no indexing, 1 = bitwise xoring, 2 = IPoly, 3 = custom indexing
-use_ramulator                          0 # 0: gpgpu-sim for dram sim; 1: ramulator
-use_xom                                0 # 0: don't use mixtur-of-memory
-ramulator_mem_type                   HBM # HBM, PCM, GDDR5, GDDR6, HMS
-dram_cache_line_size                  256 # dedicated dram-cache line size (not implemented now)
-num_dram_pages                         1 # number of normal dram holds pages [e.g. 25% tot_memory_foot_prints] (not implemented now)
-num_total_pages                        1 # number of other mem-node holds pages [e.g. 75% tot_memory_foot_prints] (not implemented now)
-accelwattch_xml_file accelwattch_sass_sim.xml # AccelWattch XML file
-power_simulation_enabled                    0 # Turn on power simulator (1=On, 0=Off)
-power_per_cycle_dump                    0 # Dump detailed power output each cycle
-hw_perf_file_name            hw_perf.csv # Hardware Performance Statistics file
-hw_perf_bench_name                       # Kernel Name in Hardware Performance Statistics file
-power_simulation_mode                    0 # Switch performance counter input for power simulation (0=Sim, 1=HW, 2=HW-Sim Hybrid)
-dvfs_enabled                           0 # Turn on DVFS for power model
-aggregate_power_stats                    0 # Accumulate power across all kernels
-accelwattch_hybrid_perfsim_L1_RH                    0 # Get L1 Read Hits for Accelwattch-Hybrid from Accel-Sim
-accelwattch_hybrid_perfsim_L1_RM                    0 # Get L1 Read Misses for Accelwattch-Hybrid from Accel-Sim
-accelwattch_hybrid_perfsim_L1_WH                    0 # Get L1 Write Hits for Accelwattch-Hybrid from Accel-Sim
-accelwattch_hybrid_perfsim_L1_WM                    0 # Get L1 Write Misses for Accelwattch-Hybrid from Accel-Sim
-accelwattch_hybrid_perfsim_L2_RH                    0 # Get L2 Read Hits for Accelwattch-Hybrid from Accel-Sim
-accelwattch_hybrid_perfsim_L2_RM                    0 # Get L2 Read Misses for Accelwattch-Hybrid from Accel-Sim
-accelwattch_hybrid_perfsim_L2_WH                    0 # Get L2 Write Hits for Accelwattch-Hybrid from Accel-Sim
-accelwattch_hybrid_perfsim_L2_WM                    0 # Get L2 Write Misses for Accelwattch-Hybrid from Accel-Sim
-accelwattch_hybrid_perfsim_CC_ACC                    0 # Get Constant Cache Acesses for Accelwattch-Hybrid from Accel-Sim
-accelwattch_hybrid_perfsim_SHARED_ACC                    0 # Get Shared Memory Acesses for Accelwattch-Hybrid from Accel-Sim
-accelwattch_hybrid_perfsim_DRAM_RD                    0 # Get DRAM Reads for Accelwattch-Hybrid from Accel-Sim
-accelwattch_hybrid_perfsim_DRAM_WR                    0 # Get DRAM Writes for Accelwattch-Hybrid from Accel-Sim
-accelwattch_hybrid_perfsim_NOC                    0 # Get Interconnect Acesses for Accelwattch-Hybrid from Accel-Sim
-accelwattch_hybrid_perfsim_PIPE_DUTY                    0 # Get Pipeline Duty Cycle Acesses for Accelwattch-Hybrid from Accel-Sim
-accelwattch_hybrid_perfsim_NUM_SM_IDLE                    0 # Get Number of Idle SMs for Accelwattch-Hybrid from Accel-Sim
-accelwattch_hybrid_perfsim_CYCLES                    0 # Get Executed Cycles for Accelwattch-Hybrid from Accel-Sim
-accelwattch_hybrid_perfsim_VOLTAGE                    0 # Get Chip Voltage for Accelwattch-Hybrid from Accel-Sim
-power_trace_enabled                    0 # produce a file for the power trace (1=On, 0=Off)
-power_trace_zlevel                     6 # Compression level of the power trace output log (0=no comp, 9=highest)
-steady_power_levels_enabled                    0 # produce a file for the steady power levels (1=On, 0=Off)
-steady_state_definition                  8:4 # allowed deviation:number of samples
-interconnect_power                     8 # Interconnect Power pJ/bit
-gpgpu_max_cycle                        0 # terminates gpu simulation early (0 = no limit)
-gpgpu_max_insn                         0 # terminates gpu simulation early (0 = no limit)
-gpgpu_max_cta                          0 # terminates gpu simulation early (0 = no limit)
-gpgpu_max_completed_cta                    0 # terminates gpu simulation early (0 = no limit)
-gpgpu_runtime_stat                   500 # display runtime statistics such as dram utilization {<freq>:<flag>}
-liveness_message_freq                    1 # Minimum number of seconds between simulation liveness messages (0 = always print)
-gpgpu_compute_capability_major                    8 # Major compute capability version number
-gpgpu_compute_capability_minor                    6 # Minor compute capability version number
-gpgpu_flush_l1_cache                    1 # Flush L1 cache at the end of each kernel call
-gpgpu_flush_l2_cache                    0 # Flush L2 cache at the end of each kernel call
-gpgpu_deadlock_detect                    0 # Stop the simulation at deadlock (1=on (default), 0=off)
-gpgpu_ptx_instruction_classification                    0 # if enabled will classify ptx instruction types per kernel (Max 255 kernels now)
-gpgpu_ptx_sim_mode                     0 # Select between Performance (default) or Functional simulation (1)
-gpgpu_clock_domains     901:901:901:1000 # Clock Domain Frequencies in MhZ {<Core Clock>:<ICNT Clock>:<L2 Clock>:<DRAM Clock>}
-gpgpu_max_concurrent_kernel                    8 # maximum kernels that can run concurrently on GPU
-gpgpu_cflog_interval                    0 # Interval between each snapshot in control flow logger
-visualizer_enabled                     0 # Turn on visualizer output (1=On, 0=Off)
-visualizer_outputfile                 NULL # Specifies the output log file for visualizer
-visualizer_zlevel                      6 # Compression level of the visualizer output log (0=no comp, 9=highest)
-gpgpu_stack_size_limit                 1024 # GPU thread stack size
-gpgpu_heap_size_limit              8388608 # GPU malloc heap size 
-gpgpu_runtime_sync_depth_limit                    2 # GPU device runtime synchronize depth
-gpgpu_runtime_pending_launch_count_limit                 2048 # GPU device runtime pending launch count
-trace_enabled                          0 # Turn on traces
-trace_components                    none # comma seperated list of traces to enable. Complete list found in trace_streams.tup. Default none
-trace_sampling_core                    0 # The core which is printed using CORE_DPRINTF. Default 0
-trace_sampling_memory_partition                   -1 # The memory partition which is printed using MEMPART_DPRINTF. Default -1 (i.e. all)
-enable_ptx_file_line_stats                    1 # Turn on PTX source line statistic profiling. (1 = On)
-ptx_line_stats_filename gpgpu_inst_stats.txt # Output file for PTX source line statistics.
-gpgpu_kernel_launch_latency                 5000 # Kernel launch latency in cycles. Default: 0
-gpgpu_cdp_enabled                      0 # Turn on CDP
-gpgpu_TB_launch_latency                    0 # thread block launch latency in cycles. Default: 0
-gddr_size                            1GB # Size of GDDR in MB/GB.(GLOBAL_HEAP_START, GLOBAL_HEAP_START + gddr_size) would be used for unmanged memory, (GLOBAL_HEAP_START + gddr_size, GLOBAL_HEAP_START + gddr_size*2) would be used for managed memory. 
-oversub                                0 # whether enable oversubscription, 0 for no, 1 to 3 for 110,125,150 oversub
-crypto_perc                            0 # how many percentage in a malloc allocation is protected
-page_table_walk_latency                  100 # Average page table walk latency (in core cycle).
-eviction_policy                        1 # Select page eviction policy
-invalidate_clean                       0 # Should directly invalidate clean pages
-reserve_accessed_page_percent                    0 # Percentage of accessed pages reserved from eviction in hope that they will be accessed in next iteration.
-percentage_of_free_page_buffer                    0 # Percentage of free page buffer to trigger the page eviction.
-page_size                            4KB # GDDR page size, only 4KB/2MB avaliable.
-pcie_bandwidth                  32.0GB/s # PCI-e bandwidth per direction, in GB/s.
-enc_frac                               0 # fraction of protected pages, 0->100, 0: no protection
-enable_dma                             0 # Enable direct access to CPU memory
-multiply_dma_penalty                    2 # Oversubscription Multiplicative Penalty Factor for Adaptive DMA
-migrate_threshold                      8 # Access counter threshold for migrating the page from cpu to gpu
-sim_prof_enable                        1 # Enable gpgpu-sim profiler
-hardware_prefetch                      0 # Select gpgpu-sim hardware prefetcher
-hwprefetch_oversub                     0 # Select gpgpu-sim hardware prefetcher under over-subscription
-page_fault_latency                 18020 # Average fault latency (in core cycle).
-enable_accurate_simulation                    0 # Enable page fault functional simulation.
-enable_smart_runtime                    0 # Enable access pattern detection, policy engine, and adaptive memory management.
-skip_cycles_enable                     0 # Enable skip cycles if all warps stall and wait for page fualt
DRAM Timing Options:
nbk                                    16 # number of banks
CCD                                     1 # column to column delay
RRD                                     4 # minimal delay between activation of rows in different banks
RCD                                    14 # row to column delay
RAS                                    33 # time needed to activate row
RP                                     14 # time needed to precharge (deactivate) row
RC                                     47 # row cycle time
CDLR                                    3 # switching from write to read (changes tWTR)
WR                                     12 # last data-in to row precharge
CL                                     14 # CAS latency
WL                                      2 # Write latency
nbkgrp                                  4 # number of bank groups
CCDL                                    2 # column to column delay between accesses to different bank groups
RTPL                                    4 # read to precharge delay between accesses to different bank groups
Total number of memory sub partition = 64
========================================================================
is_xom: 0
========================================================================
addr_dec_mask[CHIP]  = 0000000000001f00 	high:13 low:8
addr_dec_mask[RANK]  = 0000000000000000 	high:64 low:0
addr_dec_mask[BK]    = 00000000000e2000 	high:20 low:13
addr_dec_mask[ROW]   = 00000001fff00000 	high:33 low:20
addr_dec_mask[COL]   = 000000000001c0ff 	high:17 low:0
addr_dec_mask[BURST] = 000000000000001f 	high:5 low:0
sub_partition_id_mask = 0000000000002000
GPGPU-Sim uArch: clock freqs: 901000000.000000:901000000.000000:901000000.000000:1000000000.000000
GPGPU-Sim uArch: clock periods: 0.00000000110987791343:0.00000000110987791343:0.00000000110987791343:0.00000000100000000000
gddr size 1073741824
pcie_bandwidth_string: 32.0GB/s
gpgpu-sim.cc set bwpcie_bandwidth: 32.000000 GB/s
curve_a: 24.000000
curve_b: 0.072920
m_dev_malloc_managed start: 3221225472
125047221947e9da19d7ced7eface860  /u/xqg5sq/insight-lab/salus/gpu-app-collection/bin/11.8/release2/uvm-atax
Extracting PTX file and ptxas options    1: uvm-atax.1.sm_75.ptx -arch=sm_75
*** Initializing Memory Statistics ***
GPGPU-Sim uArch: performance model initialization complete.
-----------------------------------
cfg pcie_bandwidth_string: 32.0GB/s
cfg pcie_bandwidth: 32.000000
cfg ptw latency: 100 
cfg pf latency: 18020
-----------------------------------
cudart version 11080
self exe links to: /u/xqg5sq/insight-lab/salus/gpu-app-collection/bin/11.8/release2/uvm-atax
*****running application******* uvm-atax
self exe links to: /u/xqg5sq/insight-lab/salus/gpu-app-collection/bin/11.8/release2/uvm-atax
*****running application******* uvm-atax
11.0
GPGPU-Sim PTX: __cudaRegisterFatBinary, fat_cubin_handle = 1, filename=default
self exe links to: /u/xqg5sq/insight-lab/salus/gpu-app-collection/bin/11.8/release2/uvm-atax
*****running application******* uvm-atax
Running md5sum using "md5sum /u/xqg5sq/insight-lab/salus/gpu-app-collection/bin/11.8/release2/uvm-atax "
self exe links to: /u/xqg5sq/insight-lab/salus/gpu-app-collection/bin/11.8/release2/uvm-atax
*****running application******* uvm-atax
Extracting specific PTX file named uvm-atax.1.sm_75.ptx 
GPGPU-Sim PTX: __cudaRegisterFunction _Z12atax_kernel2PfS_S_ : hostFun 0x0x5637e5260aa4, fat_cubin_handle = 1
GPGPU-Sim PTX: Parsing uvm-atax.1.sm_75.ptx
GPGPU-Sim PTX: instruction assembly for function '_Z12atax_kernel1PfS_S_'...   done.
GPGPU-Sim PTX: instruction assembly for function '_Z12atax_kernel2PfS_S_'...   done.
GPGPU-Sim PTX: finished parsing EMBEDDED .ptx file uvm-atax.1.sm_75.ptx
GPGPU-Sim PTX: loading globals with explicit initializers... 
GPGPU-Sim PTX: finished loading globals (0 bytes total).
GPGPU-Sim PTX: loading constants with explicit initializers...  done.
GPGPU-Sim PTX: Loading PTXInfo from uvm-atax.1.sm_75.ptx
GPGPU-Sim PTX: Kernel '_Z12atax_kernel2PfS_S_' : regs=16, lmem=0, smem=0, cmem=376
GPGPU-Sim PTX: Kernel '_Z12atax_kernel1PfS_S_' : regs=14, lmem=0, smem=0, cmem=376
GPGPU-Sim PTX: __cudaRegisterFunction _Z12atax_kernel1PfS_S_ : hostFun 0x0x5637e5260926, fat_cubin_handle = 1
cudaMallocManagedInternal: 6291456
cpuMemPtr: 0x7f9df3881010
gpuMemPtr: 0xc0000000
devPtr: 0
cudaMallocManagedInternal: 65536
cpuMemPtr: 0x5637f94567c0
gpuMemPtr: 0xc0600000
devPtr: 0
cudaMallocManagedInternal: 65536
cpuMemPtr: 0x5637f9476c80
gpuMemPtr: 0xc0610000
devPtr: 0
cudaMallocManagedInternal: 65536
cpuMemPtr: 0x5637f9497140
gpuMemPtr: 0xc0620000
devPtr: 0
GPGPU-Sim PTX: Setting up arguments for 8 bytes starting at 0x7ffd1725db38..
GPGPU-Sim PTX: Setting up arguments for 8 bytes starting at 0x7ffd1725db30..
GPGPU-Sim PTX: Setting up arguments for 8 bytes starting at 0x7ffd1725db28..

GPGPU-Sim PTX: cudaLaunch for 0x0x5637e5260926 (mode=performance simulation) on stream 0
GPGPU-Sim PTX: finding reconvergence points for '_Z12atax_kernel1PfS_S_'...
GPGPU-Sim PTX: Finding dominators for '_Z12atax_kernel1PfS_S_'...
GPGPU-Sim PTX: Finding immediate dominators for '_Z12atax_kernel1PfS_S_'...
GPGPU-Sim PTX: Finding postdominators for '_Z12atax_kernel1PfS_S_'...
GPGPU-Sim PTX: Finding immediate postdominators for '_Z12atax_kernel1PfS_S_'...
GPGPU-Sim PTX: pre-decoding instructions for '_Z12atax_kernel1PfS_S_'...
GPGPU-Sim PTX: reconvergence points for _Z12atax_kernel1PfS_S_...
GPGPU-Sim PTX:  1 (potential) branch divergence @  PC=0x040 (uvm-atax.1.sm_75.ptx:35) @%p1 bra $L__BB0_3;
GPGPU-Sim PTX:    immediate post dominator      @  PC=0x2c8 (uvm-atax.1.sm_75.ptx:121) ret;
GPGPU-Sim PTX:  2 (potential) branch divergence @  PC=0x2c0 (uvm-atax.1.sm_75.ptx:118) @%p2 bra $L__BB0_2;
GPGPU-Sim PTX:    immediate post dominator      @  PC=0x2c8 (uvm-atax.1.sm_75.ptx:121) ret;
GPGPU-Sim PTX: ... end of reconvergence points for _Z12atax_kernel1PfS_S_
GPGPU-Sim PTX: ... done pre-decoding instructions for '_Z12atax_kernel1PfS_S_'.
GPGPU-Sim PTX: pushing kernel '_Z12atax_kernel1PfS_S_' to stream 0, gridDim= (5,1,1) blockDim = (256,1,1) 
GPGPU-Sim uArch: Shader 0 bind to kernel 1 '_Z12atax_kernel1PfS_S_'
GPGPU-Sim uArch: CTA/core = 8, limited by: threads
GPGPU-Sim: Reconfigure L1 cache to 192KB
GPGPU-Sim uArch: Shader 1 bind to kernel 1 '_Z12atax_kernel1PfS_S_'
GPGPU-Sim uArch: Shader 2 bind to kernel 1 '_Z12atax_kernel1PfS_S_'
GPGPU-Sim uArch: Shader 3 bind to kernel 1 '_Z12atax_kernel1PfS_S_'
GPGPU-Sim uArch: Shader 4 bind to kernel 1 '_Z12atax_kernel1PfS_S_'
cycle: 1000000
Destroy streams for kernel 1: size 0
kernel_name = _Z12atax_kernel1PfS_S_ 
kernel_launch_uid = 1 
gpu_sim_cycle = 1233859
gpu_sim_insn = 6233600
gpu_ipc =       5.0521
gpu_tot_sim_cycle = 1238859
gpu_tot_sim_insn = 6233600
gpu_tot_ipc =       5.0317
gpu_tot_issued_cta = 5
gpu_occupancy = 10.9003% 
gpu_tot_occupancy = 10.9003% 
max_total_param_size = 0
gpu_stall_dramfull = 0
gpu_stall_icnt2sh    = 0
partiton_reqs_in_parallel = 362994
partiton_reqs_in_parallel_total    = 0
partiton_level_parallism =       0.2942
partiton_level_parallism_total  =       0.2930
partiton_reqs_in_parallel_util = 362994
partiton_reqs_in_parallel_util_total    = 0
gpu_sim_cycle_parition_util = 251042
gpu_tot_sim_cycle_parition_util    = 0
partiton_level_parallism_util =       1.4459
partiton_level_parallism_util_total  =       1.4459
L2_BW  =       8.4822 GB/Sec
L2_BW_total  =       8.4480 GB/Sec
gpu_total_sim_rate=2884

========= Core cache stats =========
L1I_cache:
	L1I_total_cache_accesses = 0
	L1I_total_cache_misses = 0
	L1I_total_cache_pending_hits = 0
	L1I_total_cache_reservation_fails = 0
L1D_cache:
	L1D_cache_core[0]: Access = 355232, Miss = 39074, Miss_rate = 0.110, Pending_hits = 30, Reservation_fails = 5985
	L1D_cache_core[1]: Access = 355232, Miss = 39006, Miss_rate = 0.110, Pending_hits = 30, Reservation_fails = 6304
	L1D_cache_core[2]: Access = 355232, Miss = 39078, Miss_rate = 0.110, Pending_hits = 20, Reservation_fails = 6775
	L1D_cache_core[3]: Access = 355232, Miss = 39071, Miss_rate = 0.110, Pending_hits = 9, Reservation_fails = 6560
	L1D_cache_core[4]: Access = 244822, Miss = 26817, Miss_rate = 0.110, Pending_hits = 28, Reservation_fails = 3402
	L1D_cache_core[5]: Access = 0, Miss = 0, Miss_rate = -nan, Pending_hits = 0, Reservation_fails = 0
	L1D_cache_core[6]: Access = 0, Miss = 0, Miss_rate = -nan, Pending_hits = 0, Reservation_fails = 0
	L1D_cache_core[7]: Access = 0, Miss = 0, Miss_rate = -nan, Pending_hits = 0, Reservation_fails = 0
	L1D_cache_core[8]: Access = 0, Miss = 0, Miss_rate = -nan, Pending_hits = 0, Reservation_fails = 0
	L1D_cache_core[9]: Access = 0, Miss = 0, Miss_rate = -nan, Pending_hits = 0, Reservation_fails = 0
	L1D_cache_core[10]: Access = 0, Miss = 0, Miss_rate = -nan, Pending_hits = 0, Reservation_fails = 0
	L1D_cache_core[11]: Access = 0, Miss = 0, Miss_rate = -nan, Pending_hits = 0, Reservation_fails = 0
	L1D_cache_core[12]: Access = 0, Miss = 0, Miss_rate = -nan, Pending_hits = 0, Reservation_fails = 0
	L1D_cache_core[13]: Access = 0, Miss = 0, Miss_rate = -nan, Pending_hits = 0, Reservation_fails = 0
	L1D_cache_core[14]: Access = 0, Miss = 0, Miss_rate = -nan, Pending_hits = 0, Reservation_fails = 0
	L1D_cache_core[15]: Access = 0, Miss = 0, Miss_rate = -nan, Pending_hits = 0, Reservation_fails = 0
	L1D_cache_core[16]: Access = 0, Miss = 0, Miss_rate = -nan, Pending_hits = 0, Reservation_fails = 0
	L1D_cache_core[17]: Access = 0, Miss = 0, Miss_rate = -nan, Pending_hits = 0, Reservation_fails = 0
	L1D_cache_core[18]: Access = 0, Miss = 0, Miss_rate = -nan, Pending_hits = 0, Reservation_fails = 0
	L1D_cache_core[19]: Access = 0, Miss = 0, Miss_rate = -nan, Pending_hits = 0, Reservation_fails = 0
	L1D_cache_core[20]: Access = 0, Miss = 0, Miss_rate = -nan, Pending_hits = 0, Reservation_fails = 0
	L1D_cache_core[21]: Access = 0, Miss = 0, Miss_rate = -nan, Pending_hits = 0, Reservation_fails = 0
	L1D_cache_core[22]: Access = 0, Miss = 0, Miss_rate = -nan, Pending_hits = 0, Reservation_fails = 0
	L1D_cache_core[23]: Access = 0, Miss = 0, Miss_rate = -nan, Pending_hits = 0, Reservation_fails = 0
	L1D_cache_core[24]: Access = 0, Miss = 0, Miss_rate = -nan, Pending_hits = 0, Reservation_fails = 0
	L1D_cache_core[25]: Access = 0, Miss = 0, Miss_rate = -nan, Pending_hits = 0, Reservation_fails = 0
	L1D_cache_core[26]: Access = 0, Miss = 0, Miss_rate = -nan, Pending_hits = 0, Reservation_fails = 0
	L1D_cache_core[27]: Access = 0, Miss = 0, Miss_rate = -nan, Pending_hits = 0, Reservation_fails = 0
	L1D_cache_core[28]: Access = 0, Miss = 0, Miss_rate = -nan, Pending_hits = 0, Reservation_fails = 0
	L1D_cache_core[29]: Access = 0, Miss = 0, Miss_rate = -nan, Pending_hits = 0, Reservation_fails = 0
	L1D_cache_core[30]: Access = 0, Miss = 0, Miss_rate = -nan, Pending_hits = 0, Reservation_fails = 0
	L1D_cache_core[31]: Access = 0, Miss = 0, Miss_rate = -nan, Pending_hits = 0, Reservation_fails = 0
	L1D_cache_core[32]: Access = 0, Miss = 0, Miss_rate = -nan, Pending_hits = 0, Reservation_fails = 0
	L1D_cache_core[33]: Access = 0, Miss = 0, Miss_rate = -nan, Pending_hits = 0, Reservation_fails = 0
	L1D_cache_core[34]: Access = 0, Miss = 0, Miss_rate = -nan, Pending_hits = 0, Reservation_fails = 0
	L1D_cache_core[35]: Access = 0, Miss = 0, Miss_rate = -nan, Pending_hits = 0, Reservation_fails = 0
	L1D_cache_core[36]: Access = 0, Miss = 0, Miss_rate = -nan, Pending_hits = 0, Reservation_fails = 0
	L1D_cache_core[37]: Access = 0, Miss = 0, Miss_rate = -nan, Pending_hits = 0, Reservation_fails = 0
	L1D_cache_core[38]: Access = 0, Miss = 0, Miss_rate = -nan, Pending_hits = 0, Reservation_fails = 0
	L1D_cache_core[39]: Access = 0, Miss = 0, Miss_rate = -nan, Pending_hits = 0, Reservation_fails = 0
	L1D_cache_core[40]: Access = 0, Miss = 0, Miss_rate = -nan, Pending_hits = 0, Reservation_fails = 0
	L1D_cache_core[41]: Access = 0, Miss = 0, Miss_rate = -nan, Pending_hits = 0, Reservation_fails = 0
	L1D_cache_core[42]: Access = 0, Miss = 0, Miss_rate = -nan, Pending_hits = 0, Reservation_fails = 0
	L1D_cache_core[43]: Access = 0, Miss = 0, Miss_rate = -nan, Pending_hits = 0, Reservation_fails = 0
	L1D_cache_core[44]: Access = 0, Miss = 0, Miss_rate = -nan, Pending_hits = 0, Reservation_fails = 0
	L1D_cache_core[45]: Access = 0, Miss = 0, Miss_rate = -nan, Pending_hits = 0, Reservation_fails = 0
	L1D_cache_core[46]: Access = 0, Miss = 0, Miss_rate = -nan, Pending_hits = 0, Reservation_fails = 0
	L1D_cache_core[47]: Access = 0, Miss = 0, Miss_rate = -nan, Pending_hits = 0, Reservation_fails = 0
	L1D_cache_core[48]: Access = 0, Miss = 0, Miss_rate = -nan, Pending_hits = 0, Reservation_fails = 0
	L1D_cache_core[49]: Access = 0, Miss = 0, Miss_rate = -nan, Pending_hits = 0, Reservation_fails = 0
	L1D_cache_core[50]: Access = 0, Miss = 0, Miss_rate = -nan, Pending_hits = 0, Reservation_fails = 0
	L1D_cache_core[51]: Access = 0, Miss = 0, Miss_rate = -nan, Pending_hits = 0, Reservation_fails = 0
	L1D_cache_core[52]: Access = 0, Miss = 0, Miss_rate = -nan, Pending_hits = 0, Reservation_fails = 0
	L1D_cache_core[53]: Access = 0, Miss = 0, Miss_rate = -nan, Pending_hits = 0, Reservation_fails = 0
	L1D_cache_core[54]: Access = 0, Miss = 0, Miss_rate = -nan, Pending_hits = 0, Reservation_fails = 0
	L1D_cache_core[55]: Access = 0, Miss = 0, Miss_rate = -nan, Pending_hits = 0, Reservation_fails = 0
	L1D_cache_core[56]: Access = 0, Miss = 0, Miss_rate = -nan, Pending_hits = 0, Reservation_fails = 0
	L1D_cache_core[57]: Access = 0, Miss = 0, Miss_rate = -nan, Pending_hits = 0, Reservation_fails = 0
	L1D_cache_core[58]: Access = 0, Miss = 0, Miss_rate = -nan, Pending_hits = 0, Reservation_fails = 0
	L1D_cache_core[59]: Access = 0, Miss = 0, Miss_rate = -nan, Pending_hits = 0, Reservation_fails = 0
	L1D_cache_core[60]: Access = 0, Miss = 0, Miss_rate = -nan, Pending_hits = 0, Reservation_fails = 0
	L1D_cache_core[61]: Access = 0, Miss = 0, Miss_rate = -nan, Pending_hits = 0, Reservation_fails = 0
	L1D_cache_core[62]: Access = 0, Miss = 0, Miss_rate = -nan, Pending_hits = 0, Reservation_fails = 0
	L1D_cache_core[63]: Access = 0, Miss = 0, Miss_rate = -nan, Pending_hits = 0, Reservation_fails = 0
	L1D_cache_core[64]: Access = 0, Miss = 0, Miss_rate = -nan, Pending_hits = 0, Reservation_fails = 0
	L1D_cache_core[65]: Access = 0, Miss = 0, Miss_rate = -nan, Pending_hits = 0, Reservation_fails = 0
	L1D_cache_core[66]: Access = 0, Miss = 0, Miss_rate = -nan, Pending_hits = 0, Reservation_fails = 0
	L1D_cache_core[67]: Access = 0, Miss = 0, Miss_rate = -nan, Pending_hits = 0, Reservation_fails = 0
	L1D_cache_core[68]: Access = 0, Miss = 0, Miss_rate = -nan, Pending_hits = 0, Reservation_fails = 0
	L1D_cache_core[69]: Access = 0, Miss = 0, Miss_rate = -nan, Pending_hits = 0, Reservation_fails = 0
	L1D_cache_core[70]: Access = 0, Miss = 0, Miss_rate = -nan, Pending_hits = 0, Reservation_fails = 0
	L1D_cache_core[71]: Access = 0, Miss = 0, Miss_rate = -nan, Pending_hits = 0, Reservation_fails = 0
	L1D_cache_core[72]: Access = 0, Miss = 0, Miss_rate = -nan, Pending_hits = 0, Reservation_fails = 0
	L1D_cache_core[73]: Access = 0, Miss = 0, Miss_rate = -nan, Pending_hits = 0, Reservation_fails = 0
	L1D_cache_core[74]: Access = 0, Miss = 0, Miss_rate = -nan, Pending_hits = 0, Reservation_fails = 0
	L1D_cache_core[75]: Access = 0, Miss = 0, Miss_rate = -nan, Pending_hits = 0, Reservation_fails = 0
	L1D_cache_core[76]: Access = 0, Miss = 0, Miss_rate = -nan, Pending_hits = 0, Reservation_fails = 0
	L1D_cache_core[77]: Access = 0, Miss = 0, Miss_rate = -nan, Pending_hits = 0, Reservation_fails = 0
	L1D_cache_core[78]: Access = 0, Miss = 0, Miss_rate = -nan, Pending_hits = 0, Reservation_fails = 0
	L1D_cache_core[79]: Access = 0, Miss = 0, Miss_rate = -nan, Pending_hits = 0, Reservation_fails = 0
	L1D_total_cache_accesses = 1665750
	L1D_total_cache_misses = 183046
	L1D_total_cache_miss_rate = 0.1099
	L1D_total_cache_pending_hits = 117
	L1D_total_cache_reservation_fails = 29026
	L1D_cache_data_port_util = 0.248
	L1D_cache_fill_port_util = 0.031
L1C_cache:
	L1C_total_cache_accesses = 0
	L1C_total_cache_misses = 0
	L1C_total_cache_pending_hits = 0
	L1C_total_cache_reservation_fails = 0
L1T_cache:
	L1T_total_cache_accesses = 0
	L1T_total_cache_misses = 0
	L1T_total_cache_pending_hits = 0
	L1T_total_cache_reservation_fails = 0

Total_core_cache_stats:
	Total_core_cache_stats_breakdown[GLOBAL_ACC_R][HIT] = 1302639
	Total_core_cache_stats_breakdown[GLOBAL_ACC_R][HIT_RESERVED] = 117
	Total_core_cache_stats_breakdown[GLOBAL_ACC_R][MISS] = 46964
	Total_core_cache_stats_breakdown[GLOBAL_ACC_R][RESERVATION_FAIL] = 27283
	Total_core_cache_stats_breakdown[GLOBAL_ACC_R][SECTOR_MISS] = 136030
	Total_core_cache_stats_breakdown[GLOBAL_ACC_R][MSHR_HIT] = 117
	Total_core_cache_stats_breakdown[LOCAL_ACC_R][HIT] = 0
	Total_core_cache_stats_breakdown[LOCAL_ACC_R][HIT_RESERVED] = 0
	Total_core_cache_stats_breakdown[LOCAL_ACC_R][MISS] = 0
	Total_core_cache_stats_breakdown[LOCAL_ACC_R][RESERVATION_FAIL] = 0
	Total_core_cache_stats_breakdown[LOCAL_ACC_R][SECTOR_MISS] = 0
	Total_core_cache_stats_breakdown[LOCAL_ACC_R][MSHR_HIT] = 0
	Total_core_cache_stats_breakdown[CONST_ACC_R][HIT] = 0
	Total_core_cache_stats_breakdown[CONST_ACC_R][HIT_RESERVED] = 0
	Total_core_cache_stats_breakdown[CONST_ACC_R][MISS] = 0
	Total_core_cache_stats_breakdown[CONST_ACC_R][RESERVATION_FAIL] = 0
	Total_core_cache_stats_breakdown[CONST_ACC_R][SECTOR_MISS] = 0
	Total_core_cache_stats_breakdown[CONST_ACC_R][MSHR_HIT] = 0
	Total_core_cache_stats_breakdown[TEXTURE_ACC_R][HIT] = 0
	Total_core_cache_stats_breakdown[TEXTURE_ACC_R][HIT_RESERVED] = 0
	Total_core_cache_stats_breakdown[TEXTURE_ACC_R][MISS] = 0
	Total_core_cache_stats_breakdown[TEXTURE_ACC_R][RESERVATION_FAIL] = 0
	Total_core_cache_stats_breakdown[TEXTURE_ACC_R][SECTOR_MISS] = 0
	Total_core_cache_stats_breakdown[TEXTURE_ACC_R][MSHR_HIT] = 0
	Total_core_cache_stats_breakdown[GLOBAL_ACC_W][HIT] = 179948
	Total_core_cache_stats_breakdown[GLOBAL_ACC_W][HIT_RESERVED] = 0
	Total_core_cache_stats_breakdown[GLOBAL_ACC_W][MISS] = 13
	Total_core_cache_stats_breakdown[GLOBAL_ACC_W][RESERVATION_FAIL] = 1743
	Total_core_cache_stats_breakdown[GLOBAL_ACC_W][SECTOR_MISS] = 39
	Total_core_cache_stats_breakdown[GLOBAL_ACC_W][MSHR_HIT] = 0
	Total_core_cache_stats_breakdown[LOCAL_ACC_W][HIT] = 0
	Total_core_cache_stats_breakdown[LOCAL_ACC_W][HIT_RESERVED] = 0
	Total_core_cache_stats_breakdown[LOCAL_ACC_W][MISS] = 0
	Total_core_cache_stats_breakdown[LOCAL_ACC_W][RESERVATION_FAIL] = 0
	Total_core_cache_stats_breakdown[LOCAL_ACC_W][SECTOR_MISS] = 0
	Total_core_cache_stats_breakdown[LOCAL_ACC_W][MSHR_HIT] = 0
	Total_core_cache_stats_breakdown[L1_WRBK_ACC][HIT] = 0
	Total_core_cache_stats_breakdown[L1_WRBK_ACC][HIT_RESERVED] = 0
	Total_core_cache_stats_breakdown[L1_WRBK_ACC][MISS] = 0
	Total_core_cache_stats_breakdown[L1_WRBK_ACC][RESERVATION_FAIL] = 0
	Total_core_cache_stats_breakdown[L1_WRBK_ACC][SECTOR_MISS] = 0
	Total_core_cache_stats_breakdown[L1_WRBK_ACC][MSHR_HIT] = 0
	Total_core_cache_stats_breakdown[L2_WRBK_ACC][HIT] = 0
	Total_core_cache_stats_breakdown[L2_WRBK_ACC][HIT_RESERVED] = 0
	Total_core_cache_stats_breakdown[L2_WRBK_ACC][MISS] = 0
	Total_core_cache_stats_breakdown[L2_WRBK_ACC][RESERVATION_FAIL] = 0
	Total_core_cache_stats_breakdown[L2_WRBK_ACC][SECTOR_MISS] = 0
	Total_core_cache_stats_breakdown[L2_WRBK_ACC][MSHR_HIT] = 0
	Total_core_cache_stats_breakdown[INST_ACC_R][HIT] = 0
	Total_core_cache_stats_breakdown[INST_ACC_R][HIT_RESERVED] = 0
	Total_core_cache_stats_breakdown[INST_ACC_R][MISS] = 0
	Total_core_cache_stats_breakdown[INST_ACC_R][RESERVATION_FAIL] = 0
	Total_core_cache_stats_breakdown[INST_ACC_R][SECTOR_MISS] = 0
	Total_core_cache_stats_breakdown[INST_ACC_R][MSHR_HIT] = 0
	Total_core_cache_stats_breakdown[L1_WR_ALLOC_R][HIT] = 0
	Total_core_cache_stats_breakdown[L1_WR_ALLOC_R][HIT_RESERVED] = 0
	Total_core_cache_stats_breakdown[L1_WR_ALLOC_R][MISS] = 0
	Total_core_cache_stats_breakdown[L1_WR_ALLOC_R][RESERVATION_FAIL] = 0
	Total_core_cache_stats_breakdown[L1_WR_ALLOC_R][SECTOR_MISS] = 0
	Total_core_cache_stats_breakdown[L1_WR_ALLOC_R][MSHR_HIT] = 0
	Total_core_cache_stats_breakdown[L2_WR_ALLOC_R][HIT] = 0
	Total_core_cache_stats_breakdown[L2_WR_ALLOC_R][HIT_RESERVED] = 0
	Total_core_cache_stats_breakdown[L2_WR_ALLOC_R][MISS] = 0
	Total_core_cache_stats_breakdown[L2_WR_ALLOC_R][RESERVATION_FAIL] = 0
	Total_core_cache_stats_breakdown[L2_WR_ALLOC_R][SECTOR_MISS] = 0
	Total_core_cache_stats_breakdown[L2_WR_ALLOC_R][MSHR_HIT] = 0
	Total_core_cache_stats_breakdown[GLOBAL_ACC_R][TOTAL_ACCESS] = 1485750
	Total_core_cache_stats_breakdown[GLOBAL_ACC_W][TOTAL_ACCESS] = 180000

Total_core_cache_fail_stats:
	Total_core_cache_fail_stats_breakdown[GLOBAL_ACC_R][MISS_QUEUE_FULL] = 27283
	Total_core_cache_fail_stats_breakdown[GLOBAL_ACC_W][MISS_QUEUE_FULL] = 1743
ctas_completed 5, Shader 0 warp_id issue ditsribution:
warp_id:
0, 1, 2, 3, 4, 5, 6, 7, 
distro:
5196, 5196, 5196, 5196, 5196, 5196, 5196, 5196, 
gpgpu_n_tot_thrd_icount = 6318976
gpgpu_n_tot_w_icount = 197468
gpgpu_n_stall_shd_mem = 945094
gpgpu_n_mem_read_local = 0
gpgpu_n_mem_write_local = 0
gpgpu_n_mem_read_global = 182994
gpgpu_n_mem_write_global = 180000
gpgpu_n_mem_texture = 0
gpgpu_n_mem_const = 0
gpgpu_n_load_insn  = 2881200
gpgpu_n_store_insn = 1440000
gpgpu_n_shmem_insn = 0
gpgpu_n_sstarr_insn = 0
gpgpu_n_tex_insn = 0
gpgpu_n_const_mem_insn = 0
gpgpu_n_param_mem_insn = 3840
gpgpu_n_shmem_bkconflict = 0
gpgpu_n_cache_bkconflict = 0
gpgpu_n_intrawarp_mshr_merge = 0
gpgpu_n_cmem_portconflict = 0
gpgpu_stall_shd_mem[c_mem][resource_stall] = 0
gpgpu_stall_shd_mem[s_mem][bk_conf] = 0
gpgpu_stall_shd_mem[gl_mem][resource_stall] = 679956
gpgpu_stall_shd_mem[gl_mem][coal_stall] = 1389
gpgpu_stall_shd_mem[gl_mem][data_port_stall] = 263749
gpu_reg_bank_conflict_stalls = 0
Warp Occupancy Distribution:
Stall:2200	W0_Idle:2111013	W0_Scoreboard:21455891	W1:0	W2:0	W3:0	W4:0	W5:0	W6:0	W7:0	W8:0	W9:0	W10:0	W11:0	W12:0	W13:0	W14:0	W15:0	W16:5186	W17:0	W18:0	W19:0	W20:0	W21:0	W22:0	W23:0	W24:0	W25:0	W26:0	W27:0	W28:0	W29:0	W30:0	W31:0	W32:192282
single_issue_nums: WS0:51960	WS1:51960	WS2:46774	WS3:46774	
dual_issue_nums: WS0:0	WS1:0	WS2:0	WS3:0	
traffic_breakdown_coretomem[GLOBAL_ACC_R] = 1463952 {8:182994,}
traffic_breakdown_coretomem[GLOBAL_ACC_W] = 7200000 {40:180000,}
traffic_breakdown_memtocore[GLOBAL_ACC_R] = 7319760 {40:182994,}
traffic_breakdown_memtocore[GLOBAL_ACC_W] = 1440000 {8:180000,}
maxmflatency = 952707 
max_icnt2mem_latency = 952583 
maxmrqlatency = 0 
max_icnt2sh_latency = 11 
averagemflatency = 1770 
avg_icnt2mem_latency = 1646 
avg_icnt2sh_latency = 2 
mrq_lat_table:0 	0 	0 	0 	0 	0 	0 	0 	0 	0 	0 	0 	0 	0 	0 	0 	0 	0 	0 	0 	0 	0 	0 	0 	0 	0 	0 	0 	0 	0 	0 	0 	
dq_lat_table:0 	0 	0 	0 	0 	0 	0 	0 	0 	0 	0 	0 	0 	0 	0 	0 	0 	0 	0 	0 	0 	0 	0 	0 	0 	0 	0 	0 	0 	0 	0 	0 	
mf_lat_table:0 	0 	0 	0 	0 	0 	0 	361530 	0 	128 	22 	10 	8 	50 	52 	45 	87 	169 	336 	557 	0 	0 	0 	0 	0 	0 	0 	0 	0 	0 	0 	0 	
icnt2mem_lat_table:0 	0 	0 	0 	305930 	55585 	15 	0 	0 	128 	23 	10 	7 	51 	51 	45 	87 	169 	337 	556 	0 	0 	0 	0 	
icnt2sh_lat_table:0 	358755 	4205 	34 	0 	0 	0 	0 	0 	0 	0 	0 	0 	0 	0 	0 	0 	0 	0 	0 	0 	0 	0 	0 	
mf_lat_pw_table:0 	0 	0 	0 	0 	0 	0 	840 	4 	6 	93 	257 	36 	165 	27 	42 	76 	72 	234 	209 	0 	0 	0 	0 	0 	0 	0 	0 	0 	0 	0 	0 	
maximum concurrent accesses to same row:
dram[0]:         0         0         0         0         0         0         0         0         0         0         0         0         0         0         0         0 
dram[1]:         0         0         0         0         0         0         0         0         0         0         0         0         0         0         0         0 
dram[2]:         0         0         0         0         0         0         0         0         0         0         0         0         0         0         0         0 
dram[3]:         0         0         0         0         0         0         0         0         0         0         0         0         0         0         0         0 
dram[4]:         0         0         0         0         0         0         0         0         0         0         0         0         0         0         0         0 
dram[5]:         0         0         0         0         0         0         0         0         0         0         0         0         0         0         0         0 
dram[6]:         0         0         0         0         0         0         0         0         0         0         0         0         0         0         0         0 
dram[7]:         0         0         0         0         0         0         0         0         0         0         0         0         0         0         0         0 
dram[8]:         0         0         0         0         0         0         0         0         0         0         0         0         0         0         0         0 
dram[9]:         0         0         0         0         0         0         0         0         0         0         0         0         0         0         0         0 
dram[10]:         0         0         0         0         0         0         0         0         0         0         0         0         0         0         0         0 
dram[11]:         0         0         0         0         0         0         0         0         0         0         0         0         0         0         0         0 
dram[12]:         0         0         0         0         0         0         0         0         0         0         0         0         0         0         0         0 
dram[13]:         0         0         0         0         0         0         0         0         0         0         0         0         0         0         0         0 
dram[14]:         0         0         0         0         0         0         0         0         0         0         0         0         0         0         0         0 
dram[15]:         0         0         0         0         0         0         0         0         0         0         0         0         0         0         0         0 
dram[16]:         0         0         0         0         0         0         0         0         0         0         0         0         0         0         0         0 
dram[17]:         0         0         0         0         0         0         0         0         0         0         0         0         0         0         0         0 
dram[18]:         0         0         0         0         0         0         0         0         0         0         0         0         0         0         0         0 
dram[19]:         0         0         0         0         0         0         0         0         0         0         0         0         0         0         0         0 
dram[20]:         0         0         0         0         0         0         0         0         0         0         0         0         0         0         0         0 
dram[21]:         0         0         0         0         0         0         0         0         0         0         0         0         0         0         0         0 
dram[22]:         0         0         0         0         0         0         0         0         0         0         0         0         0         0         0         0 
dram[23]:         0         0         0         0         0         0         0         0         0         0         0         0         0         0         0         0 
dram[24]:         0         0         0         0         0         0         0         0         0         0         0         0         0         0         0         0 
dram[25]:         0         0         0         0         0         0         0         0         0         0         0         0         0         0         0         0 
dram[26]:         0         0         0         0         0         0         0         0         0         0         0         0         0         0         0         0 
dram[27]:         0         0         0         0         0         0         0         0         0         0         0         0         0         0         0         0 
dram[28]:         0         0         0         0         0         0         0         0         0         0         0         0         0         0         0         0 
dram[29]:         0         0         0         0         0         0         0         0         0         0         0         0         0         0         0         0 
dram[30]:         0         0         0         0         0         0         0         0         0         0         0         0         0         0         0         0 
dram[31]:         0         0         0         0         0         0         0         0         0         0         0         0         0         0         0         0 
maximum service time to same row:
dram[0]:         0         0         0         0         0         0         0         0         0         0         0         0         0         0         0         0 
dram[1]:         0         0         0         0         0         0         0         0         0         0         0         0         0         0         0         0 
dram[2]:         0         0         0         0         0         0         0         0         0         0         0         0         0         0         0         0 
dram[3]:         0         0         0         0         0         0         0         0         0         0         0         0         0         0         0         0 
dram[4]:         0         0         0         0         0         0         0         0         0         0         0         0         0         0         0         0 
dram[5]:         0         0         0         0         0         0         0         0         0         0         0         0         0         0         0         0 
dram[6]:         0         0         0         0         0         0         0         0         0         0         0         0         0         0         0         0 
dram[7]:         0         0         0         0         0         0         0         0         0         0         0         0         0         0         0         0 
dram[8]:         0         0         0         0         0         0         0         0         0         0         0         0         0         0         0         0 
dram[9]:         0         0         0         0         0         0         0         0         0         0         0         0         0         0         0         0 
dram[10]:         0         0         0         0         0         0         0         0         0         0         0         0         0         0         0         0 
dram[11]:         0         0         0         0         0         0         0         0         0         0         0         0         0         0         0         0 
dram[12]:         0         0         0         0         0         0         0         0         0         0         0         0         0         0         0         0 
dram[13]:         0         0         0         0         0         0         0         0         0         0         0         0         0         0         0         0 
dram[14]:         0         0         0         0         0         0         0         0         0         0         0         0         0         0         0         0 
dram[15]:         0         0         0         0         0         0         0         0         0         0         0         0         0         0         0         0 
dram[16]:         0         0         0         0         0         0         0         0         0         0         0         0         0         0         0         0 
dram[17]:         0         0         0         0         0         0         0         0         0         0         0         0         0         0         0         0 
dram[18]:         0         0         0         0         0         0         0         0         0         0         0         0         0         0         0         0 
dram[19]:         0         0         0         0         0         0         0         0         0         0         0         0         0         0         0         0 
dram[20]:         0         0         0         0         0         0         0         0         0         0         0         0         0         0         0         0 
dram[21]:         0         0         0         0         0         0         0         0         0         0         0         0         0         0         0         0 
dram[22]:         0         0         0         0         0         0         0         0         0         0         0         0         0         0         0         0 
dram[23]:         0         0         0         0         0         0         0         0         0         0         0         0         0         0         0         0 
dram[24]:         0         0         0         0         0         0         0         0         0         0         0         0         0         0         0         0 
dram[25]:         0         0         0         0         0         0         0         0         0         0         0         0         0         0         0         0 
dram[26]:         0         0         0         0         0         0         0         0         0         0         0         0         0         0         0         0 
dram[27]:         0         0         0         0         0         0         0         0         0         0         0         0         0         0         0         0 
dram[28]:         0         0         0         0         0         0         0         0         0         0         0         0         0         0         0         0 
dram[29]:         0         0         0         0         0         0         0         0         0         0         0         0         0         0         0         0 
dram[30]:         0         0         0         0         0         0         0         0         0         0         0         0         0         0         0         0 
dram[31]:         0         0         0         0         0         0         0         0         0         0         0         0         0         0         0         0 
average row accesses per activate:
dram[0]:      -nan      -nan      -nan      -nan      -nan      -nan      -nan      -nan      -nan      -nan      -nan      -nan      -nan      -nan      -nan      -nan 
dram[1]:      -nan      -nan      -nan      -nan      -nan      -nan      -nan      -nan      -nan      -nan      -nan      -nan      -nan      -nan      -nan      -nan 
dram[2]:      -nan      -nan      -nan      -nan      -nan      -nan      -nan      -nan      -nan      -nan      -nan      -nan      -nan      -nan      -nan      -nan 
dram[3]:      -nan      -nan      -nan      -nan      -nan      -nan      -nan      -nan      -nan      -nan      -nan      -nan      -nan      -nan      -nan      -nan 
dram[4]:      -nan      -nan      -nan      -nan      -nan      -nan      -nan      -nan      -nan      -nan      -nan      -nan      -nan      -nan      -nan      -nan 
dram[5]:      -nan      -nan      -nan      -nan      -nan      -nan      -nan      -nan      -nan      -nan      -nan      -nan      -nan      -nan      -nan      -nan 
dram[6]:      -nan      -nan      -nan      -nan      -nan      -nan      -nan      -nan      -nan      -nan      -nan      -nan      -nan      -nan      -nan      -nan 
dram[7]:      -nan      -nan      -nan      -nan      -nan      -nan      -nan      -nan      -nan      -nan      -nan      -nan      -nan      -nan      -nan      -nan 
dram[8]:      -nan      -nan      -nan      -nan      -nan      -nan      -nan      -nan      -nan      -nan      -nan      -nan      -nan      -nan      -nan      -nan 
dram[9]:      -nan      -nan      -nan      -nan      -nan      -nan      -nan      -nan      -nan      -nan      -nan      -nan      -nan      -nan      -nan      -nan 
dram[10]:      -nan      -nan      -nan      -nan      -nan      -nan      -nan      -nan      -nan      -nan      -nan      -nan      -nan      -nan      -nan      -nan 
dram[11]:      -nan      -nan      -nan      -nan      -nan      -nan      -nan      -nan      -nan      -nan      -nan      -nan      -nan      -nan      -nan      -nan 
dram[12]:      -nan      -nan      -nan      -nan      -nan      -nan      -nan      -nan      -nan      -nan      -nan      -nan      -nan      -nan      -nan      -nan 
dram[13]:      -nan      -nan      -nan      -nan      -nan      -nan      -nan      -nan      -nan      -nan      -nan      -nan      -nan      -nan      -nan      -nan 
dram[14]:      -nan      -nan      -nan      -nan      -nan      -nan      -nan      -nan      -nan      -nan      -nan      -nan      -nan      -nan      -nan      -nan 
dram[15]:      -nan      -nan      -nan      -nan      -nan      -nan      -nan      -nan      -nan      -nan      -nan      -nan      -nan      -nan      -nan      -nan 
dram[16]:      -nan      -nan      -nan      -nan      -nan      -nan      -nan      -nan      -nan      -nan      -nan      -nan      -nan      -nan      -nan      -nan 
dram[17]:      -nan      -nan      -nan      -nan      -nan      -nan      -nan      -nan      -nan      -nan      -nan      -nan      -nan      -nan      -nan      -nan 
dram[18]:      -nan      -nan      -nan      -nan      -nan      -nan      -nan      -nan      -nan      -nan      -nan      -nan      -nan      -nan      -nan      -nan 
dram[19]:      -nan      -nan      -nan      -nan      -nan      -nan      -nan      -nan      -nan      -nan      -nan      -nan      -nan      -nan      -nan      -nan 
dram[20]:      -nan      -nan      -nan      -nan      -nan      -nan      -nan      -nan      -nan      -nan      -nan      -nan      -nan      -nan      -nan      -nan 
dram[21]:      -nan      -nan      -nan      -nan      -nan      -nan      -nan      -nan      -nan      -nan      -nan      -nan      -nan      -nan      -nan      -nan 
dram[22]:      -nan      -nan      -nan      -nan      -nan      -nan      -nan      -nan      -nan      -nan      -nan      -nan      -nan      -nan      -nan      -nan 
dram[23]:      -nan      -nan      -nan      -nan      -nan      -nan      -nan      -nan      -nan      -nan      -nan      -nan      -nan      -nan      -nan      -nan 
dram[24]:      -nan      -nan      -nan      -nan      -nan      -nan      -nan      -nan      -nan      -nan      -nan      -nan      -nan      -nan      -nan      -nan 
dram[25]:      -nan      -nan      -nan      -nan      -nan      -nan      -nan      -nan      -nan      -nan      -nan      -nan      -nan      -nan      -nan      -nan 
dram[26]:      -nan      -nan      -nan      -nan      -nan      -nan      -nan      -nan      -nan      -nan      -nan      -nan      -nan      -nan      -nan      -nan 
dram[27]:      -nan      -nan      -nan      -nan      -nan      -nan      -nan      -nan      -nan      -nan      -nan      -nan      -nan      -nan      -nan      -nan 
dram[28]:      -nan      -nan      -nan      -nan      -nan      -nan      -nan      -nan      -nan      -nan      -nan      -nan      -nan      -nan      -nan      -nan 
dram[29]:      -nan      -nan      -nan      -nan      -nan      -nan      -nan      -nan      -nan      -nan      -nan      -nan      -nan      -nan      -nan      -nan 
dram[30]:      -nan      -nan      -nan      -nan      -nan      -nan      -nan      -nan      -nan      -nan      -nan      -nan      -nan      -nan      -nan      -nan 
dram[31]:      -nan      -nan      -nan      -nan      -nan      -nan      -nan      -nan      -nan      -nan      -nan      -nan      -nan      -nan      -nan      -nan 
average row locality = 0/0 = -nan
number of total memory accesses made:
dram[0]:         0         0         0         0         0         0         0         0         0         0         0         0         0         0         0         0 
dram[1]:         0         0         0         0         0         0         0         0         0         0         0         0         0         0         0         0 
dram[2]:         0         0         0         0         0         0         0         0         0         0         0         0         0         0         0         0 
dram[3]:         0         0         0         0         0         0         0         0         0         0         0         0         0         0         0         0 
dram[4]:         0         0         0         0         0         0         0         0         0         0         0         0         0         0         0         0 
dram[5]:         0         0         0         0         0         0         0         0         0         0         0         0         0         0         0         0 
dram[6]:         0         0         0         0         0         0         0         0         0         0         0         0         0         0         0         0 
dram[7]:         0         0         0         0         0         0         0         0         0         0         0         0         0         0         0         0 
dram[8]:         0         0         0         0         0         0         0         0         0         0         0         0         0         0         0         0 
dram[9]:         0         0         0         0         0         0         0         0         0         0         0         0         0         0         0         0 
dram[10]:         0         0         0         0         0         0         0         0         0         0         0         0         0         0         0         0 
dram[11]:         0         0         0         0         0         0         0         0         0         0         0         0         0         0         0         0 
dram[12]:         0         0         0         0         0         0         0         0         0         0         0         0         0         0         0         0 
dram[13]:         0         0         0         0         0         0         0         0         0         0         0         0         0         0         0         0 
dram[14]:         0         0         0         0         0         0         0         0         0         0         0         0         0         0         0         0 
dram[15]:         0         0         0         0         0         0         0         0         0         0         0         0         0         0         0         0 
dram[16]:         0         0         0         0         0         0         0         0         0         0         0         0         0         0         0         0 
dram[17]:         0         0         0         0         0         0         0         0         0         0         0         0         0         0         0         0 
dram[18]:         0         0         0         0         0         0         0         0         0         0         0         0         0         0         0         0 
dram[19]:         0         0         0         0         0         0         0         0         0         0         0         0         0         0         0         0 
dram[20]:         0         0         0         0         0         0         0         0         0         0         0         0         0         0         0         0 
dram[21]:         0         0         0         0         0         0         0         0         0         0         0         0         0         0         0         0 
dram[22]:         0         0         0         0         0         0         0         0         0         0         0         0         0         0         0         0 
dram[23]:         0         0         0         0         0         0         0         0         0         0         0         0         0         0         0         0 
dram[24]:         0         0         0         0         0         0         0         0         0         0         0         0         0         0         0         0 
dram[25]:         0         0         0         0         0         0         0         0         0         0         0         0         0         0         0         0 
dram[26]:         0         0         0         0         0         0         0         0         0         0         0         0         0         0         0         0 
dram[27]:         0         0         0         0         0         0         0         0         0         0         0         0         0         0         0         0 
dram[28]:         0         0         0         0         0         0         0         0         0         0         0         0         0         0         0         0 
dram[29]:         0         0         0         0         0         0         0         0         0         0         0         0         0         0         0         0 
dram[30]:         0         0         0         0         0         0         0         0         0         0         0         0         0         0         0         0 
dram[31]:         0         0         0         0         0         0         0         0         0         0         0         0         0         0         0         0 
total accesses: 0
min_bank_accesses = 0!
min_chip_accesses = 0!
number of total read accesses:
dram[0]:         0         0         0         0         0         0         0         0         0         0         0         0         0         0         0         0 
dram[1]:         0         0         0         0         0         0         0         0         0         0         0         0         0         0         0         0 
dram[2]:         0         0         0         0         0         0         0         0         0         0         0         0         0         0         0         0 
dram[3]:         0         0         0         0         0         0         0         0         0         0         0         0         0         0         0         0 
dram[4]:         0         0         0         0         0         0         0         0         0         0         0         0         0         0         0         0 
dram[5]:         0         0         0         0         0         0         0         0         0         0         0         0         0         0         0         0 
dram[6]:         0         0         0         0         0         0         0         0         0         0         0         0         0         0         0         0 
dram[7]:         0         0         0         0         0         0         0         0         0         0         0         0         0         0         0         0 
dram[8]:         0         0         0         0         0         0         0         0         0         0         0         0         0         0         0         0 
dram[9]:         0         0         0         0         0         0         0         0         0         0         0         0         0         0         0         0 
dram[10]:         0         0         0         0         0         0         0         0         0         0         0         0         0         0         0         0 
dram[11]:         0         0         0         0         0         0         0         0         0         0         0         0         0         0         0         0 
dram[12]:         0         0         0         0         0         0         0         0         0         0         0         0         0         0         0         0 
dram[13]:         0         0         0         0         0         0         0         0         0         0         0         0         0         0         0         0 
dram[14]:         0         0         0         0         0         0         0         0         0         0         0         0         0         0         0         0 
dram[15]:         0         0         0         0         0         0         0         0         0         0         0         0         0         0         0         0 
dram[16]:         0         0         0         0         0         0         0         0         0         0         0         0         0         0         0         0 
dram[17]:         0         0         0         0         0         0         0         0         0         0         0         0         0         0         0         0 
dram[18]:         0         0         0         0         0         0         0         0         0         0         0         0         0         0         0         0 
dram[19]:         0         0         0         0         0         0         0         0         0         0         0         0         0         0         0         0 
dram[20]:         0         0         0         0         0         0         0         0         0         0         0         0         0         0         0         0 
dram[21]:         0         0         0         0         0         0         0         0         0         0         0         0         0         0         0         0 
dram[22]:         0         0         0         0         0         0         0         0         0         0         0         0         0         0         0         0 
dram[23]:         0         0         0         0         0         0         0         0         0         0         0         0         0         0         0         0 
dram[24]:         0         0         0         0         0         0         0         0         0         0         0         0         0         0         0         0 
dram[25]:         0         0         0         0         0         0         0         0         0         0         0         0         0         0         0         0 
dram[26]:         0         0         0         0         0         0         0         0         0         0         0         0         0         0         0         0 
dram[27]:         0         0         0         0         0         0         0         0         0         0         0         0         0         0         0         0 
dram[28]:         0         0         0         0         0         0         0         0         0         0         0         0         0         0         0         0 
dram[29]:         0         0         0         0         0         0         0         0         0         0         0         0         0         0         0         0 
dram[30]:         0         0         0         0         0         0         0         0         0         0         0         0         0         0         0         0 
dram[31]:         0         0         0         0         0         0         0         0         0         0         0         0         0         0         0         0 
total dram reads = 0
min_bank_accesses = 0!
min_chip_accesses = 0!
number of total write accesses:
dram[0]:         0         0         0         0         0         0         0         0         0         0         0         0         0         0         0         0 
[...]
F:   961357----T:   962149 	 St: c0312000 Sz: 4096 	 Sm: 0 	 T: memcpy_h2d(0.879023)
F:   962149----T:   962941 	 St: c043e000 Sz: 4096 	 Sm: 0 	 T: memcpy_h2d(0.879023)
F:   962941----T:   963733 	 St: c008f000 Sz: 4096 	 Sm: 0 	 T: memcpy_h2d(0.879023)
F:   963733----T:   964525 	 St: c01bb000 Sz: 4096 	 Sm: 0 	 T: memcpy_h2d(0.879023)
F:   964525----T:   965317 	 St: c02e7000 Sz: 4096 	 Sm: 0 	 T: memcpy_h2d(0.879023)
F:   965317----T:   966109 	 St: c0413000 Sz: 4096 	 Sm: 0 	 T: memcpy_h2d(0.879023)
F:   966109----T:   966901 	 St: c0601000 Sz: 4096 	 Sm: 0 	 T: memcpy_h2d(0.879023)
F:   966901----T:   967693 	 St: c053f000 Sz: 4096 	 Sm: 0 	 T: memcpy_h2d(0.879023)
F:   967693----T:   968485 	 St: c0125000 Sz: 4096 	 Sm: 0 	 T: memcpy_h2d(0.879023)
F:   968485----T:   969277 	 St: c0251000 Sz: 4096 	 Sm: 0 	 T: memcpy_h2d(0.879023)
F:   969277----T:   970069 	 St: c037d000 Sz: 4096 	 Sm: 0 	 T: memcpy_h2d(0.879023)
F:   970069----T:   970861 	 St: c04a9000 Sz: 4096 	 Sm: 0 	 T: memcpy_h2d(0.879023)
F:   970861----T:   971653 	 St: c04f4000 Sz: 4096 	 Sm: 0 	 T: memcpy_h2d(0.879023)
F:   971653----T:   972445 	 St: c057c000 Sz: 4096 	 Sm: 0 	 T: memcpy_h2d(0.879023)
F:   972445----T:   973237 	 St: c0044000 Sz: 4096 	 Sm: 0 	 T: memcpy_h2d(0.879023)
F:   973237----T:   974029 	 St: c0170000 Sz: 4096 	 Sm: 0 	 T: memcpy_h2d(0.879023)
F:   974029----T:   974821 	 St: c029c000 Sz: 4096 	 Sm: 0 	 T: memcpy_h2d(0.879023)
F:   974821----T:   975613 	 St: c03c8000 Sz: 4096 	 Sm: 0 	 T: memcpy_h2d(0.879023)
F:   975613----T:   976405 	 St: c00da000 Sz: 4096 	 Sm: 0 	 T: memcpy_h2d(0.879023)
F:   976405----T:   977197 	 St: c0206000 Sz: 4096 	 Sm: 0 	 T: memcpy_h2d(0.879023)
F:   977197----T:   977989 	 St: c0332000 Sz: 4096 	 Sm: 0 	 T: memcpy_h2d(0.879023)
F:   977989----T:   978781 	 St: c045e000 Sz: 4096 	 Sm: 0 	 T: memcpy_h2d(0.879023)
F:   978781----T:   979573 	 St: c00b8000 Sz: 4096 	 Sm: 0 	 T: memcpy_h2d(0.879023)
F:   979573----T:   980365 	 St: c01e4000 Sz: 4096 	 Sm: 0 	 T: memcpy_h2d(0.879023)
F:   980365----T:   981157 	 St: c0088000 Sz: 4096 	 Sm: 0 	 T: memcpy_h2d(0.879023)
F:   981157----T:   981949 	 St: c0310000 Sz: 4096 	 Sm: 0 	 T: memcpy_h2d(0.879023)
F:   981949----T:   982741 	 St: c01b4000 Sz: 4096 	 Sm: 0 	 T: memcpy_h2d(0.879023)
F:   982741----T:   983533 	 St: c04c4000 Sz: 4096 	 Sm: 0 	 T: memcpy_h2d(0.879023)
F:   983533----T:   984325 	 St: c0140000 Sz: 4096 	 Sm: 0 	 T: memcpy_h2d(0.879023)
F:   984325----T:   985117 	 St: c04cb000 Sz: 4096 	 Sm: 0 	 T: memcpy_h2d(0.879023)
F:   985117----T:   985909 	 St: c001b000 Sz: 4096 	 Sm: 0 	 T: memcpy_h2d(0.879023)
F:   985909----T:   986701 	 St: c0147000 Sz: 4096 	 Sm: 0 	 T: memcpy_h2d(0.879023)
F:   986701----T:   987493 	 St: c026c000 Sz: 4096 	 Sm: 0 	 T: memcpy_h2d(0.879023)
F:   987493----T:   988285 	 St: c0273000 Sz: 4096 	 Sm: 0 	 T: memcpy_h2d(0.879023)
F:   988285----T:   989077 	 St: c043c000 Sz: 4096 	 Sm: 0 	 T: memcpy_h2d(0.879023)
F:   989077----T:   989869 	 St: c039f000 Sz: 4096 	 Sm: 0 	 T: memcpy_h2d(0.879023)
F:   989869----T:   990661 	 St: c02e0000 Sz: 4096 	 Sm: 0 	 T: memcpy_h2d(0.879023)
F:   990661----T:   991453 	 St: c0479000 Sz: 4096 	 Sm: 0 	 T: memcpy_h2d(0.879023)
F:   991453----T:   992245 	 St: c0480000 Sz: 4096 	 Sm: 0 	 T: memcpy_h2d(0.879023)
F:   992245----T:   993037 	 St: c03f1000 Sz: 4096 	 Sm: 0 	 T: memcpy_h2d(0.879023)
F:   993037----T:   993829 	 St: c040c000 Sz: 4096 	 Sm: 0 	 T: memcpy_h2d(0.879023)
F:   993829----T:   994621 	 St: c04a2000 Sz: 4096 	 Sm: 0 	 T: memcpy_h2d(0.879023)
F:   994621----T:   995413 	 St: c03c1000 Sz: 4096 	 Sm: 0 	 T: memcpy_h2d(0.879023)
F:   995413----T:   996205 	 St: c0457000 Sz: 4096 	 Sm: 0 	 T: memcpy_h2d(0.879023)
F:   996205----T:   996997 	 St: c0538000 Sz: 4096 	 Sm: 0 	 T: memcpy_h2d(0.879023)
F:   996997----T:   997789 	 St: c04ed000 Sz: 4096 	 Sm: 0 	 T: memcpy_h2d(0.879023)
F:   997789----T:   998581 	 St: c0575000 Sz: 4096 	 Sm: 0 	 T: memcpy_h2d(0.879023)
F:   998581----T:   999373 	 St: c011e000 Sz: 4096 	 Sm: 0 	 T: memcpy_h2d(0.879023)
F:   999373----T:  1000165 	 St: c024a000 Sz: 4096 	 Sm: 0 	 T: memcpy_h2d(0.879023)
F:  1000165----T:  1000957 	 St: c0169000 Sz: 4096 	 Sm: 0 	 T: memcpy_h2d(0.879023)
F:  1000957----T:  1001749 	 St: c003d000 Sz: 4096 	 Sm: 0 	 T: memcpy_h2d(0.879023)
F:  1001749----T:  1002541 	 St: c00d3000 Sz: 4096 	 Sm: 0 	 T: memcpy_h2d(0.879023)
F:  1002541----T:  1003333 	 St: c0376000 Sz: 4096 	 Sm: 0 	 T: memcpy_h2d(0.879023)
F:  1003333----T:  1004125 	 St: c0295000 Sz: 4096 	 Sm: 0 	 T: memcpy_h2d(0.879023)
F:  1004125----T:  1004917 	 St: c01ff000 Sz: 4096 	 Sm: 0 	 T: memcpy_h2d(0.879023)
F:  1004917----T:  1005709 	 St: c032b000 Sz: 4096 	 Sm: 0 	 T: memcpy_h2d(0.879023)
F:  1005709----T:  1006501 	 St: c0081000 Sz: 4096 	 Sm: 0 	 T: memcpy_h2d(0.879023)
F:  1006501----T:  1007293 	 St: c01ad000 Sz: 4096 	 Sm: 0 	 T: memcpy_h2d(0.879023)
F:  1007293----T:  1008085 	 St: c0531000 Sz: 4096 	 Sm: 0 	 T: memcpy_h2d(0.879023)
F:  1008085----T:  1008877 	 St: c04e6000 Sz: 4096 	 Sm: 0 	 T: memcpy_h2d(0.879023)
F:  1008877----T:  1009669 	 St: c056e000 Sz: 4096 	 Sm: 0 	 T: memcpy_h2d(0.879023)
F:  1009669----T:  1010461 	 St: c0117000 Sz: 4096 	 Sm: 0 	 T: memcpy_h2d(0.879023)
F:  1010461----T:  1011253 	 St: c03ea000 Sz: 4096 	 Sm: 0 	 T: memcpy_h2d(0.879023)
F:  1011253----T:  1012045 	 St: c0243000 Sz: 4096 	 Sm: 0 	 T: memcpy_h2d(0.879023)
F:  1012045----T:  1012837 	 St: c02d9000 Sz: 4096 	 Sm: 0 	 T: memcpy_h2d(0.879023)
F:  1012837----T:  1013629 	 St: c0427000 Sz: 4096 	 Sm: 0 	 T: memcpy_h2d(0.879023)
F:  1013629----T:  1014421 	 St: c042e000 Sz: 4096 	 Sm: 0 	 T: memcpy_h2d(0.879023)
F:  1014421----T:  1015213 	 St: c0036000 Sz: 4096 	 Sm: 0 	 T: memcpy_h2d(0.879023)
F:  1015213----T:  1016005 	 St: c0162000 Sz: 4096 	 Sm: 0 	 T: memcpy_h2d(0.879023)
F:  1016005----T:  1016797 	 St: c0405000 Sz: 4096 	 Sm: 0 	 T: memcpy_h2d(0.879023)
F:  1016797----T:  1017589 	 St: c03ba000 Sz: 4096 	 Sm: 0 	 T: memcpy_h2d(0.879023)
F:  1017589----T:  1018381 	 St: c049b000 Sz: 4096 	 Sm: 0 	 T: memcpy_h2d(0.879023)
F:  1018381----T:  1019173 	 St: c0450000 Sz: 4096 	 Sm: 0 	 T: memcpy_h2d(0.879023)
F:  1019173----T:  1019965 	 St: c036f000 Sz: 4096 	 Sm: 0 	 T: memcpy_h2d(0.879023)
F:  1019965----T:  1020757 	 St: c00cc000 Sz: 4096 	 Sm: 0 	 T: memcpy_h2d(0.879023)
F:  1020757----T:  1021549 	 St: c01f8000 Sz: 4096 	 Sm: 0 	 T: memcpy_h2d(0.879023)
F:  1021549----T:  1022341 	 St: c0324000 Sz: 4096 	 Sm: 0 	 T: memcpy_h2d(0.879023)
F:  1022341----T:  1023133 	 St: c028e000 Sz: 4096 	 Sm: 0 	 T: memcpy_h2d(0.879023)
F:  1023133----T:  1023925 	 St: c007a000 Sz: 4096 	 Sm: 0 	 T: memcpy_h2d(0.879023)
F:  1023925----T:  1024717 	 St: c01a6000 Sz: 4096 	 Sm: 0 	 T: memcpy_h2d(0.879023)
F:  1024717----T:  1025509 	 St: c052a000 Sz: 4096 	 Sm: 0 	 T: memcpy_h2d(0.879023)
F:  1025509----T:  1026301 	 St: c04df000 Sz: 4096 	 Sm: 0 	 T: memcpy_h2d(0.879023)
F:  1026301----T:  1027093 	 St: c0110000 Sz: 4096 	 Sm: 0 	 T: memcpy_h2d(0.879023)
F:  1027093----T:  1027885 	 St: c023c000 Sz: 4096 	 Sm: 0 	 T: memcpy_h2d(0.879023)
F:  1027885----T:  1028677 	 St: c02d2000 Sz: 4096 	 Sm: 0 	 T: memcpy_h2d(0.879023)
F:  1028677----T:  1029469 	 St: c002f000 Sz: 4096 	 Sm: 0 	 T: memcpy_h2d(0.879023)
F:  1029469----T:  1030261 	 St: c015b000 Sz: 4096 	 Sm: 0 	 T: memcpy_h2d(0.879023)
F:  1030261----T:  1031053 	 St: c0368000 Sz: 4096 	 Sm: 0 	 T: memcpy_h2d(0.879023)
F:  1031053----T:  1031845 	 St: c00c5000 Sz: 4096 	 Sm: 0 	 T: memcpy_h2d(0.879023)
F:  1031845----T:  1032637 	 St: c01f1000 Sz: 4096 	 Sm: 0 	 T: memcpy_h2d(0.879023)
F:  1032637----T:  1033429 	 St: c031d000 Sz: 4096 	 Sm: 0 	 T: memcpy_h2d(0.879023)
F:  1033429----T:  1034221 	 St: c03fe000 Sz: 4096 	 Sm: 0 	 T: memcpy_h2d(0.879023)
F:  1034221----T:  1035013 	 St: c03b3000 Sz: 4096 	 Sm: 0 	 T: memcpy_h2d(0.879023)
F:  1035013----T:  1035805 	 St: c0494000 Sz: 4096 	 Sm: 0 	 T: memcpy_h2d(0.879023)
F:  1035805----T:  1036597 	 St: c0449000 Sz: 4096 	 Sm: 0 	 T: memcpy_h2d(0.879023)
F:  1036597----T:  1037389 	 St: c0073000 Sz: 4096 	 Sm: 0 	 T: memcpy_h2d(0.879023)
F:  1037389----T:  1038181 	 St: c019f000 Sz: 4096 	 Sm: 0 	 T: memcpy_h2d(0.879023)
F:  1038181----T:  1038973 	 St: c0287000 Sz: 4096 	 Sm: 0 	 T: memcpy_h2d(0.879023)
F:  1038973----T:  1039765 	 St: c0523000 Sz: 4096 	 Sm: 0 	 T: memcpy_h2d(0.879023)
F:  1039765----T:  1040557 	 St: c04d8000 Sz: 4096 	 Sm: 0 	 T: memcpy_h2d(0.879023)
F:  1040557----T:  1041349 	 St: c0109000 Sz: 4096 	 Sm: 0 	 T: memcpy_h2d(0.879023)
F:  1041349----T:  1042141 	 St: c0235000 Sz: 4096 	 Sm: 0 	 T: memcpy_h2d(0.879023)
F:  1042141----T:  1042933 	 St: c02cb000 Sz: 4096 	 Sm: 0 	 T: memcpy_h2d(0.879023)
F:  1042933----T:  1043725 	 St: c0028000 Sz: 4096 	 Sm: 0 	 T: memcpy_h2d(0.879023)
F:  1043725----T:  1044517 	 St: c0154000 Sz: 4096 	 Sm: 0 	 T: memcpy_h2d(0.879023)
F:  1044517----T:  1045309 	 St: c0361000 Sz: 4096 	 Sm: 0 	 T: memcpy_h2d(0.879023)
F:  1045309----T:  1046101 	 St: c00be000 Sz: 4096 	 Sm: 0 	 T: memcpy_h2d(0.879023)
F:  1046101----T:  1046893 	 St: c01ea000 Sz: 4096 	 Sm: 0 	 T: memcpy_h2d(0.879023)
F:  1046893----T:  1047685 	 St: c0316000 Sz: 4096 	 Sm: 0 	 T: memcpy_h2d(0.879023)
F:  1047685----T:  1048477 	 St: c03f7000 Sz: 4096 	 Sm: 0 	 T: memcpy_h2d(0.879023)
F:  1048477----T:  1049269 	 St: c0435000 Sz: 4096 	 Sm: 0 	 T: memcpy_h2d(0.879023)
F:  1049269----T:  1050061 	 St: c03ac000 Sz: 4096 	 Sm: 0 	 T: memcpy_h2d(0.879023)
F:  1050061----T:  1050853 	 St: c048d000 Sz: 4096 	 Sm: 0 	 T: memcpy_h2d(0.879023)
F:  1050853----T:  1051645 	 St: c0442000 Sz: 4096 	 Sm: 0 	 T: memcpy_h2d(0.879023)
F:  1051645----T:  1052437 	 St: c0280000 Sz: 4096 	 Sm: 0 	 T: memcpy_h2d(0.879023)
F:  1052437----T:  1053229 	 St: c0419000 Sz: 4096 	 Sm: 0 	 T: memcpy_h2d(0.879023)
F:  1053905----T:  1054697 	 St: c03ce000 Sz: 4096 	 Sm: 0 	 T: memcpy_h2d(0.879023)
F:  1054697----T:  1055489 	 St: c04af000 Sz: 4096 	 Sm: 0 	 T: memcpy_h2d(0.879023)
F:  1058824----T:  1059616 	 St: c02ed000 Sz: 4096 	 Sm: 0 	 T: memcpy_h2d(0.879023)
F:  1059616----T:  1060408 	 St: c0464000 Sz: 4096 	 Sm: 0 	 T: memcpy_h2d(0.879023)
F:  1060408----T:  1061200 	 St: c0095000 Sz: 4096 	 Sm: 0 	 T: memcpy_h2d(0.879023)
F:  1061200----T:  1061992 	 St: c004a000 Sz: 4096 	 Sm: 0 	 T: memcpy_h2d(0.879023)
F:  1061992----T:  1062784 	 St: c00e0000 Sz: 4096 	 Sm: 0 	 T: memcpy_h2d(0.879023)
F:  1062784----T:  1063576 	 St: c0338000 Sz: 4096 	 Sm: 0 	 T: memcpy_h2d(0.879023)
F:  1063576----T:  1064368 	 St: c02a2000 Sz: 4096 	 Sm: 0 	 T: memcpy_h2d(0.879023)
F:  1064368----T:  1065160 	 St: c01c1000 Sz: 4096 	 Sm: 0 	 T: memcpy_h2d(0.879023)
F:  1065160----T:  1065952 	 St: c0176000 Sz: 4096 	 Sm: 0 	 T: memcpy_h2d(0.879023)
F:  1065952----T:  1066744 	 St: c012b000 Sz: 4096 	 Sm: 0 	 T: memcpy_h2d(0.879023)
F:  1067316----T:  1068108 	 St: c0383000 Sz: 4096 	 Sm: 0 	 T: memcpy_h2d(0.879023)
F:  1079088----T:  1079880 	 St: c020c000 Sz: 4096 	 Sm: 0 	 T: memcpy_h2d(0.879023)
F:  1082571----T:  1083363 	 St: c0257000 Sz: 4096 	 Sm: 0 	 T: memcpy_h2d(0.879023)
F:  1243859----T:  1556260 	 	 	 Kl: 2 	 Sm: 0 	 T: kernel_launch(346.726959)
F:  1249024----T:  1249816 	 St: c0610000 Sz: 4096 	 Sm: 0 	 T: memcpy_h2d(0.879023)
F:  1249816----T:  1250608 	 St: c0611000 Sz: 4096 	 Sm: 0 	 T: memcpy_h2d(0.879023)
F:  1250994----T:  1251786 	 St: c0006000 Sz: 4096 	 Sm: 0 	 T: memcpy_h2d(0.879023)
F:  1252596----T:  1253388 	 St: c000d000 Sz: 4096 	 Sm: 0 	 T: memcpy_h2d(0.879023)
F:  1254120----T:  1254912 	 St: c0014000 Sz: 4096 	 Sm: 0 	 T: memcpy_h2d(0.879023)
F:  1257166----T:  1257958 	 St: c0022000 Sz: 4096 	 Sm: 0 	 T: memcpy_h2d(0.879023)
F:  1267152----T:  1267944 	 St: c0051000 Sz: 4096 	 Sm: 0 	 T: memcpy_h2d(0.879023)
F:  1268739----T:  1269531 	 St: c0058000 Sz: 4096 	 Sm: 0 	 T: memcpy_h2d(0.879023)
F:  1270261----T:  1271053 	 St: c005f000 Sz: 4096 	 Sm: 0 	 T: memcpy_h2d(0.879023)
F:  1271763----T:  1272555 	 St: c0066000 Sz: 4096 	 Sm: 0 	 T: memcpy_h2d(0.879023)
F:  1273251----T:  1274043 	 St: c006d000 Sz: 4096 	 Sm: 0 	 T: memcpy_h2d(0.879023)
F:  1283999----T:  1284791 	 St: c009c000 Sz: 4096 	 Sm: 0 	 T: memcpy_h2d(0.879023)
F:  1285542----T:  1286334 	 St: c00a3000 Sz: 4096 	 Sm: 0 	 T: memcpy_h2d(0.879023)
F:  1287082----T:  1287874 	 St: c00aa000 Sz: 4096 	 Sm: 0 	 T: memcpy_h2d(0.879023)
F:  1288649----T:  1289441 	 St: c00b1000 Sz: 4096 	 Sm: 0 	 T: memcpy_h2d(0.879023)
F:  1300177----T:  1300969 	 St: c00e7000 Sz: 4096 	 Sm: 0 	 T: memcpy_h2d(0.879023)
F:  1301706----T:  1302498 	 St: c00ee000 Sz: 4096 	 Sm: 0 	 T: memcpy_h2d(0.879023)
F:  1303235----T:  1304027 	 St: c00f5000 Sz: 4096 	 Sm: 0 	 T: memcpy_h2d(0.879023)
F:  1304802----T:  1305594 	 St: c00fc000 Sz: 4096 	 Sm: 0 	 T: memcpy_h2d(0.879023)
F:  1306308----T:  1307100 	 St: c0103000 Sz: 4096 	 Sm: 0 	 T: memcpy_h2d(0.879023)
F:  1316639----T:  1317431 	 St: c0132000 Sz: 4096 	 Sm: 0 	 T: memcpy_h2d(0.879023)
F:  1318526----T:  1319318 	 St: c0139000 Sz: 4096 	 Sm: 0 	 T: memcpy_h2d(0.879023)
F:  1322708----T:  1323500 	 St: c014e000 Sz: 4096 	 Sm: 0 	 T: memcpy_h2d(0.879023)
F:  1332805----T:  1333597 	 St: c017d000 Sz: 4096 	 Sm: 0 	 T: memcpy_h2d(0.879023)
F:  1334564----T:  1335356 	 St: c0184000 Sz: 4096 	 Sm: 0 	 T: memcpy_h2d(0.879023)
F:  1336124----T:  1336916 	 St: c018b000 Sz: 4096 	 Sm: 0 	 T: memcpy_h2d(0.879023)
F:  1337633----T:  1338425 	 St: c0192000 Sz: 4096 	 Sm: 0 	 T: memcpy_h2d(0.879023)
F:  1339167----T:  1339959 	 St: c0199000 Sz: 4096 	 Sm: 0 	 T: memcpy_h2d(0.879023)
F:  1348964----T:  1349756 	 St: c01c8000 Sz: 4096 	 Sm: 0 	 T: memcpy_h2d(0.879023)
F:  1350854----T:  1351646 	 St: c01cf000 Sz: 4096 	 Sm: 0 	 T: memcpy_h2d(0.879023)
F:  1352743----T:  1353535 	 St: c01d6000 Sz: 4096 	 Sm: 0 	 T: memcpy_h2d(0.879023)
F:  1354564----T:  1355356 	 St: c01dd000 Sz: 4096 	 Sm: 0 	 T: memcpy_h2d(0.879023)
F:  1365119----T:  1365911 	 St: c0213000 Sz: 4096 	 Sm: 0 	 T: memcpy_h2d(0.879023)
F:  1367008----T:  1367800 	 St: c021a000 Sz: 4096 	 Sm: 0 	 T: memcpy_h2d(0.879023)
F:  1368898----T:  1369690 	 St: c0221000 Sz: 4096 	 Sm: 0 	 T: memcpy_h2d(0.879023)
F:  1370662----T:  1371454 	 St: c0228000 Sz: 4096 	 Sm: 0 	 T: memcpy_h2d(0.879023)
F:  1372178----T:  1372970 	 St: c022f000 Sz: 4096 	 Sm: 0 	 T: memcpy_h2d(0.879023)
F:  1381291----T:  1382083 	 St: c025e000 Sz: 4096 	 Sm: 0 	 T: memcpy_h2d(0.879023)
F:  1383180----T:  1383972 	 St: c0265000 Sz: 4096 	 Sm: 0 	 T: memcpy_h2d(0.879023)
F:  1387406----T:  1388198 	 St: c027a000 Sz: 4096 	 Sm: 0 	 T: memcpy_h2d(0.879023)
F:  1397446----T:  1398238 	 St: c02a9000 Sz: 4096 	 Sm: 0 	 T: memcpy_h2d(0.879023)
F:  1399333----T:  1400125 	 St: c02b0000 Sz: 4096 	 Sm: 0 	 T: memcpy_h2d(0.879023)
F:  1401223----T:  1402015 	 St: c02b7000 Sz: 4096 	 Sm: 0 	 T: memcpy_h2d(0.879023)
F:  1403097----T:  1403889 	 St: c02be000 Sz: 4096 	 Sm: 0 	 T: memcpy_h2d(0.879023)
F:  1404859----T:  1405651 	 St: c02c5000 Sz: 4096 	 Sm: 0 	 T: memcpy_h2d(0.879023)
F:  1413633----T:  1414425 	 St: c02f4000 Sz: 4096 	 Sm: 0 	 T: memcpy_h2d(0.879023)
F:  1415520----T:  1416312 	 St: c02fb000 Sz: 4096 	 Sm: 0 	 T: memcpy_h2d(0.879023)
F:  1417407----T:  1418199 	 St: c0302000 Sz: 4096 	 Sm: 0 	 T: memcpy_h2d(0.879023)
F:  1419281----T:  1420073 	 St: c0309000 Sz: 4096 	 Sm: 0 	 T: memcpy_h2d(0.879023)
F:  1429787----T:  1430579 	 St: c033f000 Sz: 4096 	 Sm: 0 	 T: memcpy_h2d(0.879023)
F:  1431674----T:  1432466 	 St: c0346000 Sz: 4096 	 Sm: 0 	 T: memcpy_h2d(0.879023)
F:  1433571----T:  1434363 	 St: c034d000 Sz: 4096 	 Sm: 0 	 T: memcpy_h2d(0.879023)
F:  1435439----T:  1436231 	 St: c0354000 Sz: 4096 	 Sm: 0 	 T: memcpy_h2d(0.879023)
F:  1437330----T:  1438122 	 St: c035b000 Sz: 4096 	 Sm: 0 	 T: memcpy_h2d(0.879023)
F:  1445929----T:  1446721 	 St: c038a000 Sz: 4096 	 Sm: 0 	 T: memcpy_h2d(0.879023)
F:  1447816----T:  1448608 	 St: c0391000 Sz: 4096 	 Sm: 0 	 T: memcpy_h2d(0.879023)
F:  1449706----T:  1450498 	 St: c0398000 Sz: 4096 	 Sm: 0 	 T: memcpy_h2d(0.879023)
F:  1452679----T:  1453471 	 St: c03a6000 Sz: 4096 	 Sm: 0 	 T: memcpy_h2d(0.879023)
F:  1462095----T:  1462887 	 St: c03d5000 Sz: 4096 	 Sm: 0 	 T: memcpy_h2d(0.879023)
F:  1463983----T:  1464775 	 St: c03dc000 Sz: 4096 	 Sm: 0 	 T: memcpy_h2d(0.879023)
F:  1465878----T:  1466670 	 St: c03e3000 Sz: 4096 	 Sm: 0 	 T: memcpy_h2d(0.879023)
F:  1478250----T:  1479042 	 St: c0420000 Sz: 4096 	 Sm: 0 	 T: memcpy_h2d(0.879023)
F:  1494446----T:  1495238 	 St: c046b000 Sz: 4096 	 Sm: 0 	 T: memcpy_h2d(0.879023)
F:  1496333----T:  1497125 	 St: c0472000 Sz: 4096 	 Sm: 0 	 T: memcpy_h2d(0.879023)
F:  1500507----T:  1501299 	 St: c0487000 Sz: 4096 	 Sm: 0 	 T: memcpy_h2d(0.879023)
F:  1510636----T:  1511428 	 St: c04b6000 Sz: 4096 	 Sm: 0 	 T: memcpy_h2d(0.879023)
F:  1512535----T:  1513327 	 St: c04bd000 Sz: 4096 	 Sm: 0 	 T: memcpy_h2d(0.879023)
F:  1516686----T:  1517478 	 St: c04d2000 Sz: 4096 	 Sm: 0 	 T: memcpy_h2d(0.879023)
F:  1525243----T:  1526035 	 St: c04fa000 Sz: 4096 	 Sm: 0 	 T: memcpy_h2d(0.879023)
F:  1527070----T:  1527862 	 St: c0501000 Sz: 4096 	 Sm: 0 	 T: memcpy_h2d(0.879023)
F:  1528562----T:  1529354 	 St: c0508000 Sz: 4096 	 Sm: 0 	 T: memcpy_h2d(0.879023)
F:  1530149----T:  1530941 	 St: c050f000 Sz: 4096 	 Sm: 0 	 T: memcpy_h2d(0.879023)
F:  1531657----T:  1532449 	 St: c0516000 Sz: 4096 	 Sm: 0 	 T: memcpy_h2d(0.879023)
F:  1533191----T:  1533983 	 St: c051d000 Sz: 4096 	 Sm: 0 	 T: memcpy_h2d(0.879023)
F:  1542253----T:  1543045 	 St: c0545000 Sz: 4096 	 Sm: 0 	 T: memcpy_h2d(0.879023)
F:  1543991----T:  1544783 	 St: c054c000 Sz: 4096 	 Sm: 0 	 T: memcpy_h2d(0.879023)
F:  1545560----T:  1546352 	 St: c0553000 Sz: 4096 	 Sm: 0 	 T: memcpy_h2d(0.879023)
F:  1547081----T:  1547873 	 St: c055a000 Sz: 4096 	 Sm: 0 	 T: memcpy_h2d(0.879023)
F:  1548635----T:  1549427 	 St: c0561000 Sz: 4096 	 Sm: 0 	 T: memcpy_h2d(0.879023)
F:  1550135----T:  1550927 	 St: c0568000 Sz: 4096 	 Sm: 0 	 T: memcpy_h2d(0.879023)
F:  1555156----T:  1555948 	 St: c057e000 Sz: 4096 	 Sm: 0 	 T: memcpy_h2d(0.879023)
Tot_prefetch_time: 0(cycle), 0.000000(us)
Tot_kernel_exec_time: 2780119(cycle), 3085.592773(us)
Tot_kernel_exec_time_and_fault_time: 28242379(cycle), 31345.593750(us)
Tot_memcpy_h2d_time: 2174040(cycle), 2412.918945(us)
Tot_memcpy_d2h_time: 0(cycle), 0.000000(us)
Tot_memcpy_time: 2174040(cycle), 2412.918945(us)
Tot_devicesync_time: 0(cycle), 0.000000(us)
Tot_writeback_time: 0(cycle), 0.000000(us)
Tot_dma_time: 0(cycle), 0.000000(us)
Tot_memcpy_d2h_sync_wb_time: 0(cycle), 0.000000(us)
----------------------------Interconnect-DETAILS--------------------------------
Req_Network_injected_packets_num = 723894
Req_Network_cycles = 1546260
Req_Network_injected_packets_per_cycle =       0.4682 
Req_Network_conflicts_per_cycle =       0.0031
Req_Network_conflicts_per_cycle_util =       0.0104
Req_Bank_Level_Parallism =       1.5789
Req_Network_in_buffer_full_per_cycle =       0.0000
Req_Network_in_buffer_avg_util =       0.0001
Req_Network_out_buffer_full_per_cycle =       0.0000
Req_Network_out_buffer_avg_util =       0.0073

Reply_Network_injected_packets_num = 723894
Reply_Network_cycles = 1546260
Reply_Network_injected_packets_per_cycle =        0.4682
Reply_Network_conflicts_per_cycle =        0.0118
Reply_Network_conflicts_per_cycle_util =       0.0396
Reply_Bank_Level_Parallism =       1.5777
Reply_Network_in_buffer_full_per_cycle =       0.0000
Reply_Network_in_buffer_avg_util =       0.0002
Reply_Network_out_buffer_full_per_cycle =       0.0000
Reply_Network_out_buffer_avg_util =       0.0059
----------------------------END-of-Interconnect-DETAILS-------------------------


gpgpu_simulation_time = 0 days, 0 hrs, 46 min, 29 sec (2789 sec)
gpgpu_simulation_rate = 4630 (inst/sec)
gpgpu_simulation_rate = 557 (cycle/sec)
gpgpu_silicon_slowdown = 1617594x
GPGPU-Sim: detected inactive GPU simulation thread
GPGPU-Sim: *** exit detected ***
